* File: sky130_fd_sc_ls__sdfrtp_1.pex.spice
* Created: Fri Aug 28 14:03:05 2020
* Program "Calibre xRC"
* Version "v2018.4_34.26"
* Nominal Temperature: 27C
* Circuit Temperature: 27C
* 
.subckt PM_SKY130_FD_SC_LS__SDFRTP_1%SCE 2 5 7 9 11 12 14 19 20 21 22 25 26 30
+ 31 32 40 44 46 55 57
c96 40 0 9.7872e-20 $X=0.96 $Y=1.67
c97 26 0 1.56864e-19 $X=2.51 $Y=1.425
c98 25 0 2.15287e-19 $X=2.51 $Y=1.425
r99 46 55 1.90404 $w=3.43e-07 $l=5.7e-08 $layer=LI1_cond $X=1.623 $Y=1.662
+ $X2=1.68 $Y2=1.662
r100 40 42 6.6128 $w=3.28e-07 $l=4.5e-08 $layer=POLY_cond $X=0.96 $Y=1.67
+ $X2=1.005 $Y2=1.67
r101 40 41 72.64 $w=1.7e-07 $l=3.4e-07 $layer=licon1_POLY $count=2 $X=0.96
+ $Y=1.67 $X2=0.96 $Y2=1.67
r102 38 40 66.8628 $w=3.28e-07 $l=4.55e-07 $layer=POLY_cond $X=0.505 $Y=1.67
+ $X2=0.96 $Y2=1.67
r103 37 38 1.46951 $w=3.28e-07 $l=1e-08 $layer=POLY_cond $X=0.495 $Y=1.67
+ $X2=0.505 $Y2=1.67
r104 32 57 6.34154 $w=3.43e-07 $l=1.01e-07 $layer=LI1_cond $X=1.694 $Y=1.662
+ $X2=1.795 $Y2=1.662
r105 32 55 0.467658 $w=3.43e-07 $l=1.4e-08 $layer=LI1_cond $X=1.694 $Y=1.662
+ $X2=1.68 $Y2=1.662
r106 32 46 0.467658 $w=3.43e-07 $l=1.4e-08 $layer=LI1_cond $X=1.609 $Y=1.662
+ $X2=1.623 $Y2=1.662
r107 31 32 13.6623 $w=3.43e-07 $l=4.09e-07 $layer=LI1_cond $X=1.2 $Y=1.662
+ $X2=1.609 $Y2=1.662
r108 31 41 8.01699 $w=3.43e-07 $l=2.4e-07 $layer=LI1_cond $X=1.2 $Y=1.662
+ $X2=0.96 $Y2=1.662
r109 30 41 8.01699 $w=3.43e-07 $l=2.4e-07 $layer=LI1_cond $X=0.72 $Y=1.662
+ $X2=0.96 $Y2=1.662
r110 26 44 46.2115 $w=3.3e-07 $l=1.65e-07 $layer=POLY_cond $X=2.51 $Y=1.425
+ $X2=2.51 $Y2=1.26
r111 25 28 4.54912 $w=3.78e-07 $l=1.5e-07 $layer=LI1_cond $X=2.535 $Y=1.425
+ $X2=2.535 $Y2=1.575
r112 25 26 145.28 $w=1.7e-07 $l=1.7e-07 $layer=licon1_POLY $count=1 $X=2.51
+ $Y=1.425 $X2=2.51 $Y2=1.425
r113 22 28 5.46774 $w=1.7e-07 $l=1.9e-07 $layer=LI1_cond $X=2.345 $Y=1.575
+ $X2=2.535 $Y2=1.575
r114 22 57 35.8824 $w=1.68e-07 $l=5.5e-07 $layer=LI1_cond $X=2.345 $Y=1.575
+ $X2=1.795 $Y2=1.575
r115 21 44 107.681 $w=1.5e-07 $l=2.1e-07 $layer=POLY_cond $X=2.6 $Y=1.05 $X2=2.6
+ $Y2=1.26
r116 20 21 49.7366 $w=2e-07 $l=1.5e-07 $layer=POLY_cond $X=2.625 $Y=0.9
+ $X2=2.625 $Y2=1.05
r117 19 20 91.58 $w=1.5e-07 $l=2.85e-07 $layer=POLY_cond $X=2.65 $Y=0.615
+ $X2=2.65 $Y2=0.9
r118 12 14 126.927 $w=1.5e-07 $l=3.95e-07 $layer=POLY_cond $X=1.005 $Y=2.245
+ $X2=1.005 $Y2=2.64
r119 11 12 36.0588 $w=1.8e-07 $l=9e-08 $layer=POLY_cond $X=1.005 $Y=2.155
+ $X2=1.005 $Y2=2.245
r120 10 42 16.7902 $w=1.8e-07 $l=1.65e-07 $layer=POLY_cond $X=1.005 $Y=1.835
+ $X2=1.005 $Y2=1.67
r121 10 11 124.387 $w=1.8e-07 $l=3.2e-07 $layer=POLY_cond $X=1.005 $Y=1.835
+ $X2=1.005 $Y2=2.155
r122 7 9 126.927 $w=1.5e-07 $l=3.95e-07 $layer=POLY_cond $X=0.505 $Y=2.245
+ $X2=0.505 $Y2=2.64
r123 3 37 21.0783 $w=1.5e-07 $l=1.65e-07 $layer=POLY_cond $X=0.495 $Y=1.505
+ $X2=0.495 $Y2=1.67
r124 3 5 438.415 $w=1.5e-07 $l=8.55e-07 $layer=POLY_cond $X=0.495 $Y=1.505
+ $X2=0.495 $Y2=0.65
r125 2 7 36.0588 $w=1.8e-07 $l=9e-08 $layer=POLY_cond $X=0.505 $Y=2.155
+ $X2=0.505 $Y2=2.245
r126 1 38 16.7902 $w=1.8e-07 $l=1.65e-07 $layer=POLY_cond $X=0.505 $Y=1.835
+ $X2=0.505 $Y2=1.67
r127 1 2 124.387 $w=1.8e-07 $l=3.2e-07 $layer=POLY_cond $X=0.505 $Y=1.835
+ $X2=0.505 $Y2=2.155
.ends

.subckt PM_SKY130_FD_SC_LS__SDFRTP_1%A_27_88# 1 2 7 9 12 14 17 20 23 25 29 31 34
+ 35 37 38 42
c84 37 0 9.7872e-20 $X=1.21 $Y=1.1
c85 7 0 3.56444e-20 $X=1.485 $Y=0.935
r86 37 40 1.99058 $w=3.28e-07 $l=5.7e-08 $layer=LI1_cond $X=1.21 $Y=1.1 $X2=1.21
+ $Y2=1.157
r87 37 38 145.28 $w=1.7e-07 $l=1.7e-07 $layer=licon1_POLY $count=1 $X=1.21
+ $Y=1.1 $X2=1.21 $Y2=1.1
r88 31 32 72.64 $w=1.7e-07 $l=3.4e-07 $layer=licon1_POLY $count=2 $X=2.51
+ $Y=1.995 $X2=2.51 $Y2=1.995
r89 29 42 8.71323 $w=3.43e-07 $l=1.72e-07 $layer=LI1_cond $X=2.207 $Y=2.002
+ $X2=2.035 $Y2=2.002
r90 29 31 10.1215 $w=3.43e-07 $l=3.03e-07 $layer=LI1_cond $X=2.207 $Y=2.002
+ $X2=2.51 $Y2=2.002
r91 28 35 2.76166 $w=1.7e-07 $l=1.65e-07 $layer=LI1_cond $X=0.445 $Y=2.09
+ $X2=0.28 $Y2=2.09
r92 28 42 103.733 $w=1.68e-07 $l=1.59e-06 $layer=LI1_cond $X=0.445 $Y=2.09
+ $X2=2.035 $Y2=2.09
r93 26 34 1.25797 $w=2.15e-07 $l=1.25e-07 $layer=LI1_cond $X=0.365 $Y=1.157
+ $X2=0.24 $Y2=1.157
r94 25 40 3.26307 $w=2.15e-07 $l=1.65e-07 $layer=LI1_cond $X=1.045 $Y=1.157
+ $X2=1.21 $Y2=1.157
r95 25 26 36.4494 $w=2.13e-07 $l=6.8e-07 $layer=LI1_cond $X=1.045 $Y=1.157
+ $X2=0.365 $Y2=1.157
r96 21 35 3.70735 $w=2.5e-07 $l=8.5e-08 $layer=LI1_cond $X=0.28 $Y=2.175
+ $X2=0.28 $Y2=2.09
r97 21 23 10.1275 $w=3.28e-07 $l=2.9e-07 $layer=LI1_cond $X=0.28 $Y=2.175
+ $X2=0.28 $Y2=2.465
r98 20 35 3.70735 $w=2.5e-07 $l=1.18427e-07 $layer=LI1_cond $X=0.2 $Y=2.005
+ $X2=0.28 $Y2=2.09
r99 19 34 5.26796 $w=2.1e-07 $l=1.26428e-07 $layer=LI1_cond $X=0.2 $Y=1.265
+ $X2=0.24 $Y2=1.157
r100 19 20 48.2781 $w=1.68e-07 $l=7.4e-07 $layer=LI1_cond $X=0.2 $Y=1.265
+ $X2=0.2 $Y2=2.005
r101 15 34 5.26796 $w=2.1e-07 $l=1.07e-07 $layer=LI1_cond $X=0.24 $Y=1.05
+ $X2=0.24 $Y2=1.157
r102 15 17 18.4391 $w=2.48e-07 $l=4e-07 $layer=LI1_cond $X=0.24 $Y=1.05 $X2=0.24
+ $Y2=0.65
r103 14 32 2.62292 $w=3.3e-07 $l=1.5e-08 $layer=POLY_cond $X=2.525 $Y=1.995
+ $X2=2.51 $Y2=1.995
r104 10 14 32.1775 $w=3.3e-07 $l=1.98997e-07 $layer=POLY_cond $X=2.6 $Y=2.16
+ $X2=2.525 $Y2=1.995
r105 10 12 246.128 $w=1.5e-07 $l=4.8e-07 $layer=POLY_cond $X=2.6 $Y=2.16 $X2=2.6
+ $Y2=2.64
r106 7 38 50.0189 $w=2.65e-07 $l=3.47851e-07 $layer=POLY_cond $X=1.485 $Y=0.935
+ $X2=1.21 $Y2=1.1
r107 7 9 102.827 $w=1.5e-07 $l=3.2e-07 $layer=POLY_cond $X=1.485 $Y=0.935
+ $X2=1.485 $Y2=0.615
r108 2 23 300 $w=1.7e-07 $l=2.05061e-07 $layer=licon1_PDIFF $count=2 $X=0.135
+ $Y=2.32 $X2=0.28 $Y2=2.465
r109 1 17 182 $w=1.7e-07 $l=2.73038e-07 $layer=licon1_NDIFF $count=1 $X=0.135
+ $Y=0.44 $X2=0.28 $Y2=0.65
.ends

.subckt PM_SKY130_FD_SC_LS__SDFRTP_1%D 1 3 5 7 10 11 15 17 20 21 22
c57 15 0 6.10037e-20 $X=1.845 $Y=1.515
c58 5 0 1.54283e-19 $X=1.69 $Y=2.075
r59 20 23 46.2115 $w=3.3e-07 $l=1.65e-07 $layer=POLY_cond $X=1.935 $Y=1.1
+ $X2=1.935 $Y2=1.265
r60 20 22 46.2115 $w=3.3e-07 $l=1.65e-07 $layer=POLY_cond $X=1.935 $Y=1.1
+ $X2=1.935 $Y2=0.935
r61 20 21 145.28 $w=1.7e-07 $l=1.7e-07 $layer=licon1_POLY $count=1 $X=1.935
+ $Y=1.1 $X2=1.935 $Y2=1.1
r62 17 21 6.7033 $w=4.53e-07 $l=2.55e-07 $layer=LI1_cond $X=1.68 $Y=1.037
+ $X2=1.935 $Y2=1.037
r63 13 15 79.4787 $w=1.5e-07 $l=1.55e-07 $layer=POLY_cond $X=1.69 $Y=1.515
+ $X2=1.845 $Y2=1.515
r64 11 12 80.8418 $w=1.58e-07 $l=2.65e-07 $layer=POLY_cond $X=1.425 $Y=2.16
+ $X2=1.69 $Y2=2.16
r65 10 22 102.827 $w=1.5e-07 $l=3.2e-07 $layer=POLY_cond $X=1.875 $Y=0.615
+ $X2=1.875 $Y2=0.935
r66 7 15 2.83073 $w=1.5e-07 $l=7.5e-08 $layer=POLY_cond $X=1.845 $Y=1.44
+ $X2=1.845 $Y2=1.515
r67 7 23 89.734 $w=1.5e-07 $l=1.75e-07 $layer=POLY_cond $X=1.845 $Y=1.44
+ $X2=1.845 $Y2=1.265
r68 5 12 4.07462 $w=1.5e-07 $l=8.5e-08 $layer=POLY_cond $X=1.69 $Y=2.075
+ $X2=1.69 $Y2=2.16
r69 4 13 2.83073 $w=1.5e-07 $l=7.5e-08 $layer=POLY_cond $X=1.69 $Y=1.59 $X2=1.69
+ $Y2=1.515
r70 4 5 248.691 $w=1.5e-07 $l=4.85e-07 $layer=POLY_cond $X=1.69 $Y=1.59 $X2=1.69
+ $Y2=2.075
r71 1 11 4.07462 $w=1.5e-07 $l=8.5e-08 $layer=POLY_cond $X=1.425 $Y=2.245
+ $X2=1.425 $Y2=2.16
r72 1 3 126.927 $w=1.5e-07 $l=3.95e-07 $layer=POLY_cond $X=1.425 $Y=2.245
+ $X2=1.425 $Y2=2.64
.ends

.subckt PM_SKY130_FD_SC_LS__SDFRTP_1%SCD 3 6 10 11 12 13 17
c41 12 0 1.56864e-19 $X=3.12 $Y=1.665
c42 11 0 8.81023e-20 $X=3.05 $Y=2.245
c43 6 0 1.93733e-19 $X=3.04 $Y=0.615
r44 12 13 15.0167 $w=3.28e-07 $l=4.3e-07 $layer=LI1_cond $X=3.11 $Y=1.605
+ $X2=3.11 $Y2=2.035
r45 12 17 72.64 $w=1.7e-07 $l=3.4e-07 $layer=licon1_POLY $count=2 $X=3.05
+ $Y=1.605 $X2=3.05 $Y2=1.605
r46 10 17 83.0591 $w=3.3e-07 $l=4.75e-07 $layer=POLY_cond $X=3.05 $Y=2.08
+ $X2=3.05 $Y2=1.605
r47 10 11 38.3209 $w=3.3e-07 $l=1.65e-07 $layer=POLY_cond $X=3.05 $Y=2.08
+ $X2=3.05 $Y2=2.245
r48 9 17 38.0424 $w=3.3e-07 $l=1.65e-07 $layer=POLY_cond $X=3.05 $Y=1.44
+ $X2=3.05 $Y2=1.605
r49 6 9 423.032 $w=1.5e-07 $l=8.25e-07 $layer=POLY_cond $X=3.04 $Y=0.615
+ $X2=3.04 $Y2=1.44
r50 3 11 126.927 $w=1.5e-07 $l=3.95e-07 $layer=POLY_cond $X=3.035 $Y=2.64
+ $X2=3.035 $Y2=2.245
.ends

.subckt PM_SKY130_FD_SC_LS__SDFRTP_1%CLK 1 2 3 5 7 10 12 13 16 19 20
c67 20 0 3.52919e-20 $X=3.95 $Y=1.115
c68 13 0 1.4151e-19 $X=4.62 $Y=1.885
c69 3 0 4.1107e-20 $X=4.595 $Y=1.41
c70 1 0 2.74116e-20 $X=4.52 $Y=1.515
r71 19 20 72.64 $w=1.7e-07 $l=3.4e-07 $layer=licon1_POLY $count=2 $X=3.95
+ $Y=1.115 $X2=3.95 $Y2=1.115
r72 16 20 5.05951 $w=4.08e-07 $l=1.8e-07 $layer=LI1_cond $X=3.99 $Y=1.295
+ $X2=3.99 $Y2=1.115
r73 11 19 51.5841 $w=3.3e-07 $l=2.95e-07 $layer=POLY_cond $X=3.95 $Y=1.41
+ $X2=3.95 $Y2=1.115
r74 10 13 184.767 $w=1.5e-07 $l=5.75e-07 $layer=POLY_cond $X=4.645 $Y=2.46
+ $X2=4.645 $Y2=1.885
r75 7 13 37.4512 $w=2e-07 $l=1e-07 $layer=POLY_cond $X=4.62 $Y=1.785 $X2=4.62
+ $Y2=1.885
r76 6 12 23.6879 $w=1.75e-07 $l=1.05e-07 $layer=POLY_cond $X=4.62 $Y=1.62
+ $X2=4.62 $Y2=1.515
r77 6 7 54.7102 $w=2e-07 $l=1.65e-07 $layer=POLY_cond $X=4.62 $Y=1.62 $X2=4.62
+ $Y2=1.785
r78 3 12 23.6879 $w=1.75e-07 $l=1.16833e-07 $layer=POLY_cond $X=4.595 $Y=1.41
+ $X2=4.62 $Y2=1.515
r79 3 5 142.993 $w=1.5e-07 $l=4.45e-07 $layer=POLY_cond $X=4.595 $Y=1.41
+ $X2=4.595 $Y2=0.965
r80 2 11 28.6974 $w=2.1e-07 $l=2.11069e-07 $layer=POLY_cond $X=4.115 $Y=1.515
+ $X2=3.95 $Y2=1.41
r81 1 12 2.7459 $w=2.1e-07 $l=1e-07 $layer=POLY_cond $X=4.52 $Y=1.515 $X2=4.62
+ $Y2=1.515
r82 1 2 127.894 $w=2.1e-07 $l=4.05e-07 $layer=POLY_cond $X=4.52 $Y=1.515
+ $X2=4.115 $Y2=1.515
.ends

.subckt PM_SKY130_FD_SC_LS__SDFRTP_1%A_1034_392# 1 2 8 9 11 12 16 18 20 22 23 25
+ 26 33 35 36 37 38 40 44 45 46 48 49 50 52 54 55 57 61 69 70 72 77
c220 70 0 1.39473e-19 $X=9.33 $Y=1.105
c221 61 0 4.1107e-20 $X=5.422 $Y=1.285
c222 46 0 1.61901e-19 $X=7.22 $Y=0.665
c223 9 0 1.93993e-19 $X=6.135 $Y=2.21
r224 69 77 46.2115 $w=3.3e-07 $l=1.65e-07 $layer=POLY_cond $X=9.25 $Y=1.105
+ $X2=9.085 $Y2=1.105
r225 68 70 2.7938 $w=3.28e-07 $l=8e-08 $layer=LI1_cond $X=9.25 $Y=1.105 $X2=9.33
+ $Y2=1.105
r226 68 69 145.28 $w=1.7e-07 $l=1.7e-07 $layer=licon1_POLY $count=1 $X=9.25
+ $Y=1.105 $X2=9.25 $Y2=1.105
r227 65 68 3.49225 $w=3.28e-07 $l=1e-07 $layer=LI1_cond $X=9.15 $Y=1.105
+ $X2=9.25 $Y2=1.105
r228 60 61 9.72653 $w=4.03e-07 $l=2.15e-07 $layer=LI1_cond $X=5.422 $Y=1.07
+ $X2=5.422 $Y2=1.285
r229 57 58 145.28 $w=1.7e-07 $l=1.7e-07 $layer=licon1_POLY $count=1 $X=9.81
+ $Y=2.215 $X2=9.81 $Y2=2.215
r230 55 57 17.8516 $w=2.53e-07 $l=3.95e-07 $layer=LI1_cond $X=9.415 $Y=2.252
+ $X2=9.81 $Y2=2.252
r231 54 55 7.17723 $w=2.55e-07 $l=1.64085e-07 $layer=LI1_cond $X=9.33 $Y=2.125
+ $X2=9.415 $Y2=2.252
r232 53 70 4.62375 $w=1.7e-07 $l=1.65e-07 $layer=LI1_cond $X=9.33 $Y=1.27
+ $X2=9.33 $Y2=1.105
r233 53 54 55.7807 $w=1.68e-07 $l=8.55e-07 $layer=LI1_cond $X=9.33 $Y=1.27
+ $X2=9.33 $Y2=2.125
r234 52 65 4.62375 $w=1.7e-07 $l=1.65e-07 $layer=LI1_cond $X=9.15 $Y=0.94
+ $X2=9.15 $Y2=1.105
r235 51 52 33.5989 $w=1.68e-07 $l=5.15e-07 $layer=LI1_cond $X=9.15 $Y=0.425
+ $X2=9.15 $Y2=0.94
r236 49 51 6.81649 $w=1.7e-07 $l=1.20208e-07 $layer=LI1_cond $X=9.065 $Y=0.34
+ $X2=9.15 $Y2=0.425
r237 49 50 62.9572 $w=1.68e-07 $l=9.65e-07 $layer=LI1_cond $X=9.065 $Y=0.34
+ $X2=8.1 $Y2=0.34
r238 47 50 6.81649 $w=1.7e-07 $l=1.20208e-07 $layer=LI1_cond $X=8.015 $Y=0.425
+ $X2=8.1 $Y2=0.34
r239 47 48 10.1123 $w=1.68e-07 $l=1.55e-07 $layer=LI1_cond $X=8.015 $Y=0.425
+ $X2=8.015 $Y2=0.58
r240 45 48 6.81649 $w=1.7e-07 $l=1.20208e-07 $layer=LI1_cond $X=7.93 $Y=0.665
+ $X2=8.015 $Y2=0.58
r241 45 46 46.3209 $w=1.68e-07 $l=7.1e-07 $layer=LI1_cond $X=7.93 $Y=0.665
+ $X2=7.22 $Y2=0.665
r242 44 46 6.81649 $w=1.7e-07 $l=1.20208e-07 $layer=LI1_cond $X=7.135 $Y=0.58
+ $X2=7.22 $Y2=0.665
r243 43 44 10.1123 $w=1.68e-07 $l=1.55e-07 $layer=LI1_cond $X=7.135 $Y=0.425
+ $X2=7.135 $Y2=0.58
r244 41 75 40.6903 $w=3.3e-07 $l=1.65e-07 $layer=POLY_cond $X=6.085 $Y=1.71
+ $X2=6.085 $Y2=1.875
r245 41 72 13.1146 $w=3.3e-07 $l=7.5e-08 $layer=POLY_cond $X=6.085 $Y=1.71
+ $X2=6.085 $Y2=1.635
r246 40 41 145.28 $w=1.7e-07 $l=1.7e-07 $layer=licon1_POLY $count=1 $X=6.085
+ $Y=1.71 $X2=6.085 $Y2=1.71
r247 38 40 15.8897 $w=3.28e-07 $l=4.55e-07 $layer=LI1_cond $X=5.63 $Y=1.71
+ $X2=6.085 $Y2=1.71
r248 36 43 6.81649 $w=1.7e-07 $l=1.20208e-07 $layer=LI1_cond $X=7.05 $Y=0.34
+ $X2=7.135 $Y2=0.425
r249 36 37 93.2941 $w=1.68e-07 $l=1.43e-06 $layer=LI1_cond $X=7.05 $Y=0.34
+ $X2=5.62 $Y2=0.34
r250 35 38 10.1667 $w=1.78e-07 $l=1.65e-07 $layer=LI1_cond $X=5.54 $Y=1.545
+ $X2=5.54 $Y2=1.71
r251 35 61 16.0202 $w=1.78e-07 $l=2.6e-07 $layer=LI1_cond $X=5.54 $Y=1.545
+ $X2=5.54 $Y2=1.285
r252 33 60 8.25206 $w=4.03e-07 $l=2.9e-07 $layer=LI1_cond $X=5.417 $Y=0.78
+ $X2=5.417 $Y2=1.07
r253 30 37 8.41448 $w=1.7e-07 $l=2.41793e-07 $layer=LI1_cond $X=5.417 $Y=0.425
+ $X2=5.62 $Y2=0.34
r254 30 33 10.1017 $w=4.03e-07 $l=3.55e-07 $layer=LI1_cond $X=5.417 $Y=0.425
+ $X2=5.417 $Y2=0.78
r255 26 38 23.1061 $w=1.78e-07 $l=3.75e-07 $layer=LI1_cond $X=5.54 $Y=2.085
+ $X2=5.54 $Y2=1.71
r256 26 28 5.76222 $w=2.58e-07 $l=1.3e-07 $layer=LI1_cond $X=5.45 $Y=2.085
+ $X2=5.32 $Y2=2.085
r257 23 58 52.063 $w=3.03e-07 $l=2.86356e-07 $layer=POLY_cond $X=9.89 $Y=2.465
+ $X2=9.812 $Y2=2.215
r258 23 25 91.58 $w=1.5e-07 $l=2.85e-07 $layer=POLY_cond $X=9.89 $Y=2.465
+ $X2=9.89 $Y2=2.75
r259 22 77 184.596 $w=1.5e-07 $l=3.6e-07 $layer=POLY_cond $X=8.725 $Y=1.16
+ $X2=9.085 $Y2=1.16
r260 18 22 26.9307 $w=1.5e-07 $l=1.06066e-07 $layer=POLY_cond $X=8.65 $Y=1.085
+ $X2=8.725 $Y2=1.16
r261 18 20 126.927 $w=1.5e-07 $l=3.95e-07 $layer=POLY_cond $X=8.65 $Y=1.085
+ $X2=8.65 $Y2=0.69
r262 14 16 379.447 $w=1.5e-07 $l=7.4e-07 $layer=POLY_cond $X=6.525 $Y=1.545
+ $X2=6.525 $Y2=0.805
r263 13 72 16.9318 $w=1.8e-07 $l=1.65e-07 $layer=POLY_cond $X=6.25 $Y=1.635
+ $X2=6.085 $Y2=1.635
r264 12 14 27.2212 $w=1.8e-07 $l=1.21861e-07 $layer=POLY_cond $X=6.45 $Y=1.635
+ $X2=6.525 $Y2=1.545
r265 12 13 77.7419 $w=1.8e-07 $l=2e-07 $layer=POLY_cond $X=6.45 $Y=1.635
+ $X2=6.25 $Y2=1.635
r266 9 11 91.58 $w=1.5e-07 $l=2.85e-07 $layer=POLY_cond $X=6.135 $Y=2.21
+ $X2=6.135 $Y2=2.495
r267 8 9 36.0588 $w=1.8e-07 $l=9e-08 $layer=POLY_cond $X=6.135 $Y=2.12 $X2=6.135
+ $Y2=2.21
r268 8 75 95.2339 $w=1.8e-07 $l=2.45e-07 $layer=POLY_cond $X=6.135 $Y=2.12
+ $X2=6.135 $Y2=1.875
r269 2 28 600 $w=1.7e-07 $l=2.33238e-07 $layer=licon1_PDIFF $count=1 $X=5.17
+ $Y=1.96 $X2=5.32 $Y2=2.13
r270 1 33 91 $w=1.7e-07 $l=2.45204e-07 $layer=licon1_NDIFF $count=2 $X=5.22
+ $Y=0.595 $X2=5.36 $Y2=0.78
.ends

.subckt PM_SKY130_FD_SC_LS__SDFRTP_1%A_1367_93# 1 2 9 12 13 15 18 19 21 22 25 27
+ 32 34
c112 18 0 4.99889e-20 $X=7.185 $Y=1.64
c113 9 0 1.55517e-19 $X=6.91 $Y=0.805
r114 35 37 26.2292 $w=3.3e-07 $l=1.5e-07 $layer=POLY_cond $X=6.91 $Y=1.64
+ $X2=7.06 $Y2=1.64
r115 27 29 29.2227 $w=2.78e-07 $l=7.1e-07 $layer=LI1_cond $X=8.865 $Y=1.88
+ $X2=8.865 $Y2=2.59
r116 25 34 7.52792 $w=2.78e-07 $l=1.4e-07 $layer=LI1_cond $X=8.865 $Y=1.855
+ $X2=8.865 $Y2=1.715
r117 25 27 1.02897 $w=2.78e-07 $l=2.5e-08 $layer=LI1_cond $X=8.865 $Y=1.855
+ $X2=8.865 $Y2=1.88
r118 23 32 12.3649 $w=3.7e-07 $l=4.83348e-07 $layer=LI1_cond $X=8.81 $Y=1.09
+ $X2=8.435 $Y2=0.842
r119 23 34 40.7754 $w=1.68e-07 $l=6.25e-07 $layer=LI1_cond $X=8.81 $Y=1.09
+ $X2=8.81 $Y2=1.715
r120 21 32 9.03936 $w=3.7e-07 $l=2.32637e-07 $layer=LI1_cond $X=8.27 $Y=1.005
+ $X2=8.435 $Y2=0.842
r121 21 22 61.6524 $w=1.68e-07 $l=9.45e-07 $layer=LI1_cond $X=8.27 $Y=1.005
+ $X2=7.325 $Y2=1.005
r122 19 37 21.8577 $w=3.3e-07 $l=1.25e-07 $layer=POLY_cond $X=7.185 $Y=1.64
+ $X2=7.06 $Y2=1.64
r123 18 19 145.28 $w=1.7e-07 $l=1.7e-07 $layer=licon1_POLY $count=1 $X=7.185
+ $Y=1.64 $X2=7.185 $Y2=1.64
r124 16 22 7.32204 $w=1.7e-07 $l=1.75425e-07 $layer=LI1_cond $X=7.187 $Y=1.09
+ $X2=7.325 $Y2=1.005
r125 16 18 23.0489 $w=2.73e-07 $l=5.5e-07 $layer=LI1_cond $X=7.187 $Y=1.09
+ $X2=7.187 $Y2=1.64
r126 13 15 91.58 $w=1.5e-07 $l=2.85e-07 $layer=POLY_cond $X=7.06 $Y=2.23
+ $X2=7.06 $Y2=2.515
r127 12 13 36.0588 $w=1.8e-07 $l=9e-08 $layer=POLY_cond $X=7.06 $Y=2.14 $X2=7.06
+ $Y2=2.23
r128 11 37 16.9318 $w=1.8e-07 $l=1.65e-07 $layer=POLY_cond $X=7.06 $Y=1.805
+ $X2=7.06 $Y2=1.64
r129 11 12 130.218 $w=1.8e-07 $l=3.35e-07 $layer=POLY_cond $X=7.06 $Y=1.805
+ $X2=7.06 $Y2=2.14
r130 7 35 21.2229 $w=1.5e-07 $l=1.65e-07 $layer=POLY_cond $X=6.91 $Y=1.475
+ $X2=6.91 $Y2=1.64
r131 7 9 343.553 $w=1.5e-07 $l=6.7e-07 $layer=POLY_cond $X=6.91 $Y=1.475
+ $X2=6.91 $Y2=0.805
r132 2 29 400 $w=1.7e-07 $l=9.26971e-07 $layer=licon1_PDIFF $count=1 $X=8.77
+ $Y=1.735 $X2=8.92 $Y2=2.59
r133 2 27 400 $w=1.7e-07 $l=2.10357e-07 $layer=licon1_PDIFF $count=1 $X=8.77
+ $Y=1.735 $X2=8.92 $Y2=1.88
r134 1 32 182 $w=1.7e-07 $l=5.05173e-07 $layer=licon1_NDIFF $count=1 $X=8.295
+ $Y=0.37 $X2=8.435 $Y2=0.81
.ends

.subckt PM_SKY130_FD_SC_LS__SDFRTP_1%RESET_B 4 7 8 9 10 11 15 16 17 19 20 22 25
+ 28 30 31 33 36 39 41 42 43 44 51 52 56 58 66 67
c230 56 0 1.4151e-19 $X=3.95 $Y=1.995
c231 43 0 1.37312e-19 $X=10.655 $Y=2.035
c232 42 0 2.74116e-20 $X=4.225 $Y=2.035
c233 39 0 6.31244e-20 $X=10.715 $Y=1.375
c234 36 0 9.37604e-20 $X=3.56 $Y=2.245
c235 25 0 5.21422e-20 $X=10.6 $Y=0.58
c236 15 0 1.88097e-19 $X=7.3 $Y=0.805
r237 65 67 13.9889 $w=3.3e-07 $l=8e-08 $layer=POLY_cond $X=10.805 $Y=1.985
+ $X2=10.885 $Y2=1.985
r238 65 66 145.28 $w=1.7e-07 $l=1.7e-07 $layer=licon1_POLY $count=1 $X=10.805
+ $Y=1.985 $X2=10.805 $Y2=1.985
r239 62 65 15.7375 $w=3.3e-07 $l=9e-08 $layer=POLY_cond $X=10.715 $Y=1.985
+ $X2=10.805 $Y2=1.985
r240 58 60 42.6489 $w=3.56e-07 $l=3.15e-07 $layer=POLY_cond $X=7.685 $Y=2.022
+ $X2=8 $Y2=2.022
r241 57 58 2.0309 $w=3.56e-07 $l=1.5e-08 $layer=POLY_cond $X=7.67 $Y=2.022
+ $X2=7.685 $Y2=2.022
r242 55 56 145.28 $w=1.7e-07 $l=1.7e-07 $layer=licon1_POLY $count=1 $X=3.95
+ $Y=1.995 $X2=3.95 $Y2=1.995
r243 52 66 9.3 $w=1.7e-07 $l=1.7e-07 $layer=mcon $count=1 $X=10.8 $Y=2.035
+ $X2=10.8 $Y2=2.035
r244 51 60 145.28 $w=1.7e-07 $l=1.7e-07 $layer=licon1_POLY $count=1 $X=8 $Y=1.98
+ $X2=8 $Y2=1.98
r245 50 51 9.3 $w=1.7e-07 $l=1.7e-07 $layer=mcon $count=1 $X=7.92 $Y=2.035
+ $X2=7.92 $Y2=2.035
r246 46 56 9.3 $w=1.7e-07 $l=1.7e-07 $layer=mcon $count=1 $X=4.08 $Y=2.035
+ $X2=4.08 $Y2=2.035
r247 44 50 0.115467 $w=2.3e-07 $l=1.45e-07 $layer=MET1_cond $X=8.065 $Y=2.035
+ $X2=7.92 $Y2=2.035
r248 43 52 0.115467 $w=2.3e-07 $l=1.45e-07 $layer=MET1_cond $X=10.655 $Y=2.035
+ $X2=10.8 $Y2=2.035
r249 43 44 3.20544 $w=1.4e-07 $l=2.59e-06 $layer=MET1_cond $X=10.655 $Y=2.035
+ $X2=8.065 $Y2=2.035
r250 42 46 0.115467 $w=2.3e-07 $l=1.45e-07 $layer=MET1_cond $X=4.225 $Y=2.035
+ $X2=4.08 $Y2=2.035
r251 41 50 0.115467 $w=2.3e-07 $l=1.45e-07 $layer=MET1_cond $X=7.775 $Y=2.035
+ $X2=7.92 $Y2=2.035
r252 41 42 4.39356 $w=1.4e-07 $l=3.55e-06 $layer=MET1_cond $X=7.775 $Y=2.035
+ $X2=4.225 $Y2=2.035
r253 37 39 58.9681 $w=1.5e-07 $l=1.15e-07 $layer=POLY_cond $X=10.6 $Y=1.375
+ $X2=10.715 $Y2=1.375
r254 31 33 91.58 $w=1.5e-07 $l=2.85e-07 $layer=POLY_cond $X=10.885 $Y=2.465
+ $X2=10.885 $Y2=2.75
r255 30 31 36.0588 $w=1.8e-07 $l=9e-08 $layer=POLY_cond $X=10.885 $Y=2.375
+ $X2=10.885 $Y2=2.465
r256 29 67 16.9318 $w=1.8e-07 $l=1.65e-07 $layer=POLY_cond $X=10.885 $Y=2.15
+ $X2=10.885 $Y2=1.985
r257 29 30 87.4597 $w=1.8e-07 $l=2.25e-07 $layer=POLY_cond $X=10.885 $Y=2.15
+ $X2=10.885 $Y2=2.375
r258 28 62 21.2229 $w=1.5e-07 $l=1.65e-07 $layer=POLY_cond $X=10.715 $Y=1.82
+ $X2=10.715 $Y2=1.985
r259 27 39 2.83073 $w=1.5e-07 $l=7.5e-08 $layer=POLY_cond $X=10.715 $Y=1.45
+ $X2=10.715 $Y2=1.375
r260 27 28 189.723 $w=1.5e-07 $l=3.7e-07 $layer=POLY_cond $X=10.715 $Y=1.45
+ $X2=10.715 $Y2=1.82
r261 23 37 2.83073 $w=1.5e-07 $l=7.5e-08 $layer=POLY_cond $X=10.6 $Y=1.3
+ $X2=10.6 $Y2=1.375
r262 23 25 369.191 $w=1.5e-07 $l=7.2e-07 $layer=POLY_cond $X=10.6 $Y=1.3
+ $X2=10.6 $Y2=0.58
r263 20 58 23.0368 $w=1.5e-07 $l=2.08e-07 $layer=POLY_cond $X=7.685 $Y=2.23
+ $X2=7.685 $Y2=2.022
r264 20 22 91.58 $w=1.5e-07 $l=2.85e-07 $layer=POLY_cond $X=7.685 $Y=2.23
+ $X2=7.685 $Y2=2.515
r265 19 57 23.0368 $w=1.5e-07 $l=2.07e-07 $layer=POLY_cond $X=7.67 $Y=1.815
+ $X2=7.67 $Y2=2.022
r266 18 19 282.021 $w=1.5e-07 $l=5.5e-07 $layer=POLY_cond $X=7.67 $Y=1.265
+ $X2=7.67 $Y2=1.815
r267 16 18 26.9307 $w=1.5e-07 $l=1.06066e-07 $layer=POLY_cond $X=7.595 $Y=1.19
+ $X2=7.67 $Y2=1.265
r268 16 17 112.809 $w=1.5e-07 $l=2.2e-07 $layer=POLY_cond $X=7.595 $Y=1.19
+ $X2=7.375 $Y2=1.19
r269 13 17 26.9307 $w=1.5e-07 $l=1.06066e-07 $layer=POLY_cond $X=7.3 $Y=1.115
+ $X2=7.375 $Y2=1.19
r270 13 15 158.957 $w=1.5e-07 $l=3.1e-07 $layer=POLY_cond $X=7.3 $Y=1.115
+ $X2=7.3 $Y2=0.805
r271 12 15 282.021 $w=1.5e-07 $l=5.5e-07 $layer=POLY_cond $X=7.3 $Y=0.255
+ $X2=7.3 $Y2=0.805
r272 11 36 67.3007 $w=2.7e-07 $l=2.5e-07 $layer=POLY_cond $X=3.56 $Y=1.995
+ $X2=3.56 $Y2=2.245
r273 11 35 48.4159 $w=2.7e-07 $l=1.65e-07 $layer=POLY_cond $X=3.56 $Y=1.995
+ $X2=3.56 $Y2=1.83
r274 10 55 2.92121 $w=3.3e-07 $l=2e-08 $layer=POLY_cond $X=3.93 $Y=1.995
+ $X2=3.95 $Y2=1.995
r275 10 11 41.0924 $w=3.3e-07 $l=2.35e-07 $layer=POLY_cond $X=3.93 $Y=1.995
+ $X2=3.695 $Y2=1.995
r276 8 12 26.9307 $w=1.5e-07 $l=1.06066e-07 $layer=POLY_cond $X=7.225 $Y=0.18
+ $X2=7.3 $Y2=0.255
r277 8 9 1871.6 $w=1.5e-07 $l=3.65e-06 $layer=POLY_cond $X=7.225 $Y=0.18
+ $X2=3.575 $Y2=0.18
r278 7 36 126.927 $w=1.5e-07 $l=3.95e-07 $layer=POLY_cond $X=3.605 $Y=2.64
+ $X2=3.605 $Y2=2.245
r279 4 35 623.011 $w=1.5e-07 $l=1.215e-06 $layer=POLY_cond $X=3.5 $Y=0.615
+ $X2=3.5 $Y2=1.83
r280 1 9 26.9307 $w=1.5e-07 $l=1.06066e-07 $layer=POLY_cond $X=3.5 $Y=0.255
+ $X2=3.575 $Y2=0.18
r281 1 4 184.596 $w=1.5e-07 $l=3.6e-07 $layer=POLY_cond $X=3.5 $Y=0.255 $X2=3.5
+ $Y2=0.615
.ends

.subckt PM_SKY130_FD_SC_LS__SDFRTP_1%A_1234_119# 1 2 3 12 14 16 18 19 23 26 27
+ 30 31 33 34 37 41
c136 41 0 1.93993e-19 $X=6.795 $Y=2.522
c137 34 0 4.99889e-20 $X=8.15 $Y=1.41
c138 30 0 7.00504e-20 $X=7.58 $Y=2.32
c139 26 0 3.72382e-19 $X=6.795 $Y=2.32
c140 23 0 1.51838e-20 $X=6.71 $Y=0.945
r141 37 39 4.78707 $w=3.23e-07 $l=1.35e-07 $layer=LI1_cond $X=6.307 $Y=0.81
+ $X2=6.307 $Y2=0.945
r142 34 46 16.6207 $w=3.19e-07 $l=1.1e-07 $layer=POLY_cond $X=8.15 $Y=1.41
+ $X2=8.15 $Y2=1.52
r143 33 34 145.28 $w=1.7e-07 $l=1.7e-07 $layer=licon1_POLY $count=1 $X=8.15
+ $Y=1.41 $X2=8.15 $Y2=1.41
r144 31 33 17.744 $w=3.13e-07 $l=4.85e-07 $layer=LI1_cond $X=7.665 $Y=1.417
+ $X2=8.15 $Y2=1.417
r145 30 44 12.781 $w=3.15e-07 $l=4.22918e-07 $layer=LI1_cond $X=7.58 $Y=2.32
+ $X2=7.91 $Y2=2.532
r146 29 31 7.64049 $w=3.15e-07 $l=1.95944e-07 $layer=LI1_cond $X=7.58 $Y=1.575
+ $X2=7.665 $Y2=1.417
r147 29 30 48.6043 $w=1.68e-07 $l=7.45e-07 $layer=LI1_cond $X=7.58 $Y=1.575
+ $X2=7.58 $Y2=2.32
r148 28 41 3.64284 $w=2.55e-07 $l=1.53734e-07 $layer=LI1_cond $X=6.88 $Y=2.405
+ $X2=6.795 $Y2=2.522
r149 27 30 5.86024 $w=3.15e-07 $l=1.20208e-07 $layer=LI1_cond $X=7.495 $Y=2.405
+ $X2=7.58 $Y2=2.32
r150 27 28 40.123 $w=1.68e-07 $l=6.15e-07 $layer=LI1_cond $X=7.495 $Y=2.405
+ $X2=6.88 $Y2=2.405
r151 26 41 2.83584 $w=1.7e-07 $l=2.02e-07 $layer=LI1_cond $X=6.795 $Y=2.32
+ $X2=6.795 $Y2=2.522
r152 25 26 84.1604 $w=1.68e-07 $l=1.29e-06 $layer=LI1_cond $X=6.795 $Y=1.03
+ $X2=6.795 $Y2=2.32
r153 24 39 4.53325 $w=1.7e-07 $l=1.63e-07 $layer=LI1_cond $X=6.47 $Y=0.945
+ $X2=6.307 $Y2=0.945
r154 23 25 6.81649 $w=1.7e-07 $l=1.20208e-07 $layer=LI1_cond $X=6.71 $Y=0.945
+ $X2=6.795 $Y2=1.03
r155 23 24 15.6578 $w=1.68e-07 $l=2.4e-07 $layer=LI1_cond $X=6.71 $Y=0.945
+ $X2=6.47 $Y2=0.945
r156 19 41 3.64284 $w=2.55e-07 $l=1.0015e-07 $layer=LI1_cond $X=6.71 $Y=2.555
+ $X2=6.795 $Y2=2.522
r157 19 21 9.99914 $w=3.38e-07 $l=2.95e-07 $layer=LI1_cond $X=6.71 $Y=2.555
+ $X2=6.415 $Y2=2.555
r158 16 18 184.767 $w=1.5e-07 $l=5.75e-07 $layer=POLY_cond $X=8.695 $Y=1.66
+ $X2=8.695 $Y2=2.235
r159 15 46 20.418 $w=1.5e-07 $l=1.65e-07 $layer=POLY_cond $X=8.315 $Y=1.52
+ $X2=8.15 $Y2=1.52
r160 14 16 26.9307 $w=1.5e-07 $l=1.79444e-07 $layer=POLY_cond $X=8.605 $Y=1.52
+ $X2=8.695 $Y2=1.66
r161 14 15 148.702 $w=1.5e-07 $l=2.9e-07 $layer=POLY_cond $X=8.605 $Y=1.52
+ $X2=8.315 $Y2=1.52
r162 10 34 38.5462 $w=3.19e-07 $l=1.96914e-07 $layer=POLY_cond $X=8.22 $Y=1.245
+ $X2=8.15 $Y2=1.41
r163 10 12 284.585 $w=1.5e-07 $l=5.55e-07 $layer=POLY_cond $X=8.22 $Y=1.245
+ $X2=8.22 $Y2=0.69
r164 3 44 600 $w=1.7e-07 $l=2.90474e-07 $layer=licon1_PDIFF $count=1 $X=7.76
+ $Y=2.305 $X2=7.91 $Y2=2.53
r165 2 21 600 $w=1.7e-07 $l=3.5812e-07 $layer=licon1_PDIFF $count=1 $X=6.21
+ $Y=2.285 $X2=6.415 $Y2=2.555
r166 1 37 182 $w=1.7e-07 $l=2.7627e-07 $layer=licon1_NDIFF $count=1 $X=6.17
+ $Y=0.595 $X2=6.31 $Y2=0.81
.ends

.subckt PM_SKY130_FD_SC_LS__SDFRTP_1%A_835_98# 1 2 7 9 10 12 14 15 16 17 19 21
+ 22 23 24 26 27 29 30 34 35 36 38 41 43 46 49 50 51 53 57 61 64
c201 61 0 1.29052e-19 $X=4.927 $Y=1.852
c202 41 0 2.96321e-20 $X=9.785 $Y=0.58
c203 35 0 1.09841e-19 $X=9.625 $Y=1.585
c204 19 0 1.51838e-20 $X=6.095 $Y=1.115
c205 7 0 1.94423e-19 $X=5.095 $Y=1.875
r206 63 64 145.28 $w=1.7e-07 $l=1.7e-07 $layer=licon1_POLY $count=1 $X=5.115
+ $Y=1.635 $X2=5.115 $Y2=1.635
r207 61 63 5.297 $w=4.33e-07 $l=2.96454e-07 $layer=LI1_cond $X=4.927 $Y=1.852
+ $X2=5.115 $Y2=1.635
r208 60 61 14.285 $w=4.33e-07 $l=5.07e-07 $layer=LI1_cond $X=4.42 $Y=1.852
+ $X2=4.927 $Y2=1.852
r209 55 57 5.9927 $w=2.48e-07 $l=1.3e-07 $layer=LI1_cond $X=4.32 $Y=0.625
+ $X2=4.45 $Y2=0.625
r210 53 61 4.32933 $w=2.35e-07 $l=3.97e-07 $layer=LI1_cond $X=4.927 $Y=1.455
+ $X2=4.927 $Y2=1.852
r211 52 53 17.8996 $w=2.33e-07 $l=3.65e-07 $layer=LI1_cond $X=4.927 $Y=1.09
+ $X2=4.927 $Y2=1.455
r212 50 52 7.04737 $w=1.7e-07 $l=1.53734e-07 $layer=LI1_cond $X=4.81 $Y=1.005
+ $X2=4.927 $Y2=1.09
r213 50 51 17.9412 $w=1.68e-07 $l=2.75e-07 $layer=LI1_cond $X=4.81 $Y=1.005
+ $X2=4.535 $Y2=1.005
r214 49 51 6.81649 $w=1.7e-07 $l=1.20208e-07 $layer=LI1_cond $X=4.45 $Y=0.92
+ $X2=4.535 $Y2=1.005
r215 48 57 2.99516 $w=1.7e-07 $l=1.25e-07 $layer=LI1_cond $X=4.45 $Y=0.75
+ $X2=4.45 $Y2=0.625
r216 48 49 11.0909 $w=1.68e-07 $l=1.7e-07 $layer=LI1_cond $X=4.45 $Y=0.75
+ $X2=4.45 $Y2=0.92
r217 44 46 43.5851 $w=1.5e-07 $l=8.5e-08 $layer=POLY_cond $X=9.7 $Y=1.045
+ $X2=9.785 $Y2=1.045
r218 39 46 2.83073 $w=1.5e-07 $l=7.5e-08 $layer=POLY_cond $X=9.785 $Y=0.97
+ $X2=9.785 $Y2=1.045
r219 39 41 199.979 $w=1.5e-07 $l=3.9e-07 $layer=POLY_cond $X=9.785 $Y=0.97
+ $X2=9.785 $Y2=0.58
r220 37 44 2.83073 $w=1.5e-07 $l=7.5e-08 $layer=POLY_cond $X=9.7 $Y=1.12 $X2=9.7
+ $Y2=1.045
r221 37 38 199.979 $w=1.5e-07 $l=3.9e-07 $layer=POLY_cond $X=9.7 $Y=1.12 $X2=9.7
+ $Y2=1.51
r222 35 38 26.9307 $w=1.5e-07 $l=1.06066e-07 $layer=POLY_cond $X=9.625 $Y=1.585
+ $X2=9.7 $Y2=1.51
r223 35 36 207.67 $w=1.5e-07 $l=4.05e-07 $layer=POLY_cond $X=9.625 $Y=1.585
+ $X2=9.22 $Y2=1.585
r224 32 34 294.84 $w=1.5e-07 $l=5.75e-07 $layer=POLY_cond $X=9.145 $Y=2.81
+ $X2=9.145 $Y2=2.235
r225 31 36 26.9307 $w=1.5e-07 $l=1.06066e-07 $layer=POLY_cond $X=9.145 $Y=1.66
+ $X2=9.22 $Y2=1.585
r226 31 34 294.84 $w=1.5e-07 $l=5.75e-07 $layer=POLY_cond $X=9.145 $Y=1.66
+ $X2=9.145 $Y2=2.235
r227 29 32 36.0588 $w=1.8e-07 $l=9e-08 $layer=POLY_cond $X=9.145 $Y=2.9
+ $X2=9.145 $Y2=2.81
r228 29 30 68.0242 $w=1.8e-07 $l=1.75e-07 $layer=POLY_cond $X=9.145 $Y=2.9
+ $X2=9.145 $Y2=3.075
r229 28 43 23.6879 $w=1.5e-07 $l=9e-08 $layer=POLY_cond $X=6.73 $Y=3.15 $X2=6.64
+ $Y2=3.15
r230 27 30 27.2212 $w=1.5e-07 $l=1.21861e-07 $layer=POLY_cond $X=9.055 $Y=3.15
+ $X2=9.145 $Y2=3.075
r231 27 28 1192.18 $w=1.5e-07 $l=2.325e-06 $layer=POLY_cond $X=9.055 $Y=3.15
+ $X2=6.73 $Y2=3.15
r232 24 26 91.58 $w=1.5e-07 $l=2.85e-07 $layer=POLY_cond $X=6.64 $Y=2.8 $X2=6.64
+ $Y2=2.515
r233 23 43 2.7459 $w=1.8e-07 $l=7.5e-08 $layer=POLY_cond $X=6.64 $Y=3.075
+ $X2=6.64 $Y2=3.15
r234 22 24 36.0588 $w=1.8e-07 $l=9e-08 $layer=POLY_cond $X=6.64 $Y=2.89 $X2=6.64
+ $Y2=2.8
r235 22 23 71.9113 $w=1.8e-07 $l=1.85e-07 $layer=POLY_cond $X=6.64 $Y=2.89
+ $X2=6.64 $Y2=3.075
r236 19 21 99.6133 $w=1.5e-07 $l=3.1e-07 $layer=POLY_cond $X=6.095 $Y=1.115
+ $X2=6.095 $Y2=0.805
r237 18 64 37.7859 $w=5.23e-07 $l=5.69122e-07 $layer=POLY_cond $X=5.71 $Y=1.225
+ $X2=5.33 $Y2=1.635
r238 17 19 28.2037 $w=2.2e-07 $l=1.42653e-07 $layer=POLY_cond $X=6.02 $Y=1.225
+ $X2=6.095 $Y2=1.115
r239 17 18 90.4236 $w=2.2e-07 $l=3.1e-07 $layer=POLY_cond $X=6.02 $Y=1.225
+ $X2=5.71 $Y2=1.225
r240 15 43 23.6879 $w=1.5e-07 $l=9e-08 $layer=POLY_cond $X=6.55 $Y=3.15 $X2=6.64
+ $Y2=3.15
r241 15 16 440.979 $w=1.5e-07 $l=8.6e-07 $layer=POLY_cond $X=6.55 $Y=3.15
+ $X2=5.69 $Y2=3.15
r242 14 16 26.9307 $w=1.5e-07 $l=1.06066e-07 $layer=POLY_cond $X=5.615 $Y=3.075
+ $X2=5.69 $Y2=3.15
r243 13 64 46.2206 $w=2.61e-07 $l=3.86814e-07 $layer=POLY_cond $X=5.615 $Y=1.875
+ $X2=5.33 $Y2=1.635
r244 13 14 615.319 $w=1.5e-07 $l=1.2e-06 $layer=POLY_cond $X=5.615 $Y=1.875
+ $X2=5.615 $Y2=3.075
r245 10 18 44.3687 $w=5.23e-07 $l=6.50961e-07 $layer=POLY_cond $X=5.145 $Y=1.41
+ $X2=5.71 $Y2=1.225
r246 10 12 142.993 $w=1.5e-07 $l=4.45e-07 $layer=POLY_cond $X=5.145 $Y=1.41
+ $X2=5.145 $Y2=0.965
r247 7 64 46.2206 $w=2.61e-07 $l=3.37639e-07 $layer=POLY_cond $X=5.095 $Y=1.875
+ $X2=5.33 $Y2=1.635
r248 7 9 187.98 $w=1.5e-07 $l=5.85e-07 $layer=POLY_cond $X=5.095 $Y=1.875
+ $X2=5.095 $Y2=2.46
r249 2 60 600 $w=1.7e-07 $l=1.97864e-07 $layer=licon1_PDIFF $count=1 $X=4.275
+ $Y=1.96 $X2=4.42 $Y2=2.085
r250 1 55 182 $w=1.7e-07 $l=2.36643e-07 $layer=licon1_NDIFF $count=1 $X=4.175
+ $Y=0.49 $X2=4.32 $Y2=0.665
.ends

.subckt PM_SKY130_FD_SC_LS__SDFRTP_1%A_1997_272# 1 2 9 11 12 13 15 16 20 24 26
+ 27 29 34 36 37 39
c117 34 0 6.31244e-20 $X=10.315 $Y=1.525
c118 29 0 1.53844e-19 $X=11.65 $Y=1.445
c119 16 0 6.72618e-20 $X=11.14 $Y=1.53
r120 36 37 10.5766 $w=3.63e-07 $l=2.3e-07 $layer=LI1_cond $X=11.127 $Y=2.75
+ $X2=11.127 $Y2=2.52
r121 31 34 10.2135 $w=1.78e-07 $l=1.65e-07 $layer=LI1_cond $X=10.15 $Y=1.525
+ $X2=10.315 $Y2=1.525
r122 31 32 145.28 $w=1.7e-07 $l=1.7e-07 $layer=licon1_POLY $count=1 $X=10.15
+ $Y=1.525 $X2=10.15 $Y2=1.525
r123 28 29 33.9251 $w=1.68e-07 $l=5.2e-07 $layer=LI1_cond $X=11.65 $Y=0.925
+ $X2=11.65 $Y2=1.445
r124 26 28 6.81649 $w=1.7e-07 $l=1.20208e-07 $layer=LI1_cond $X=11.565 $Y=0.84
+ $X2=11.65 $Y2=0.925
r125 26 27 14.6791 $w=1.68e-07 $l=2.25e-07 $layer=LI1_cond $X=11.565 $Y=0.84
+ $X2=11.34 $Y2=0.84
r126 25 39 5.16603 $w=1.7e-07 $l=8.5e-08 $layer=LI1_cond $X=11.31 $Y=1.53
+ $X2=11.225 $Y2=1.53
r127 24 29 6.81649 $w=1.7e-07 $l=1.20208e-07 $layer=LI1_cond $X=11.565 $Y=1.53