* File: sky130_fd_sc_ls__sdfrtp_4.pex.spice
* Created: Wed Sep  2 11:27:30 2020
* Program "Calibre xRC"
* Version "v2018.4_34.26"
* Nominal Temperature: 27C
* Circuit Temperature: 27C
* 
.subckt PM_SKY130_FD_SC_LS__SDFRTP_4%A_27_74# 1 2 7 9 11 12 14 17 20 23 27 30 32
+ 33 35 40
c82 35 0 1.02897e-20 $X=2.535 $Y=1.995
c83 9 0 3.56444e-20 $X=1.485 $Y=0.935
r84 35 38 3.31764 $w=3.28e-07 $l=9.5e-08 $layer=LI1_cond $X=2.54 $Y=1.995
+ $X2=2.54 $Y2=2.09
r85 35 36 145.28 $w=1.7e-07 $l=1.7e-07 $layer=licon1_POLY $count=1 $X=2.535
+ $Y=1.995 $X2=2.535 $Y2=1.995
r86 31 33 2.76166 $w=1.7e-07 $l=1.65e-07 $layer=LI1_cond $X=0.445 $Y=2.09
+ $X2=0.28 $Y2=2.09
r87 30 38 4.62375 $w=1.7e-07 $l=1.65e-07 $layer=LI1_cond $X=2.375 $Y=2.09
+ $X2=2.54 $Y2=2.09
r88 30 31 125.914 $w=1.68e-07 $l=1.93e-06 $layer=LI1_cond $X=2.375 $Y=2.09
+ $X2=0.445 $Y2=2.09
r89 28 40 15.7375 $w=3.3e-07 $l=9e-08 $layer=POLY_cond $X=0.975 $Y=1.1 $X2=0.975
+ $Y2=1.01
r90 27 28 145.28 $w=1.7e-07 $l=1.7e-07 $layer=licon1_POLY $count=1 $X=0.975
+ $Y=1.1 $X2=0.975 $Y2=1.1
r91 25 32 0.221902 $w=3.3e-07 $l=1.25e-07 $layer=LI1_cond $X=0.365 $Y=1.1
+ $X2=0.24 $Y2=1.1
r92 25 27 21.3027 $w=3.28e-07 $l=6.1e-07 $layer=LI1_cond $X=0.365 $Y=1.1
+ $X2=0.975 $Y2=1.1
r93 21 33 3.70735 $w=2.5e-07 $l=8.5e-08 $layer=LI1_cond $X=0.28 $Y=2.175
+ $X2=0.28 $Y2=2.09
r94 21 23 10.1275 $w=3.28e-07 $l=2.9e-07 $layer=LI1_cond $X=0.28 $Y=2.175
+ $X2=0.28 $Y2=2.465
r95 20 33 3.70735 $w=2.5e-07 $l=1.18427e-07 $layer=LI1_cond $X=0.2 $Y=2.005
+ $X2=0.28 $Y2=2.09
r96 19 32 7.38875 $w=2.1e-07 $l=1.83916e-07 $layer=LI1_cond $X=0.2 $Y=1.265
+ $X2=0.24 $Y2=1.1
r97 19 20 48.2781 $w=1.68e-07 $l=7.4e-07 $layer=LI1_cond $X=0.2 $Y=1.265 $X2=0.2
+ $Y2=2.005
r98 15 32 7.38875 $w=2.1e-07 $l=1.65e-07 $layer=LI1_cond $X=0.24 $Y=0.935
+ $X2=0.24 $Y2=1.1
r99 15 17 16.3647 $w=2.48e-07 $l=3.55e-07 $layer=LI1_cond $X=0.24 $Y=0.935
+ $X2=0.24 $Y2=0.58
r100 12 36 52.2586 $w=2.99e-07 $l=2.69258e-07 $layer=POLY_cond $X=2.495 $Y=2.245
+ $X2=2.535 $Y2=1.995
r101 12 14 126.927 $w=1.5e-07 $l=3.95e-07 $layer=POLY_cond $X=2.495 $Y=2.245
+ $X2=2.495 $Y2=2.64
r102 9 11 102.827 $w=1.5e-07 $l=3.2e-07 $layer=POLY_cond $X=1.485 $Y=0.935
+ $X2=1.485 $Y2=0.615
r103 8 40 21.2229 $w=1.5e-07 $l=1.65e-07 $layer=POLY_cond $X=1.14 $Y=1.01
+ $X2=0.975 $Y2=1.01
r104 7 9 26.9307 $w=1.5e-07 $l=1.06066e-07 $layer=POLY_cond $X=1.41 $Y=1.01
+ $X2=1.485 $Y2=0.935
r105 7 8 138.447 $w=1.5e-07 $l=2.7e-07 $layer=POLY_cond $X=1.41 $Y=1.01 $X2=1.14
+ $Y2=1.01
r106 2 23 300 $w=1.7e-07 $l=2.05061e-07 $layer=licon1_PDIFF $count=2 $X=0.135
+ $Y=2.32 $X2=0.28 $Y2=2.465
r107 1 17 182 $w=1.7e-07 $l=2.73038e-07 $layer=licon1_NDIFF $count=1 $X=0.135
+ $Y=0.37 $X2=0.28 $Y2=0.58
.ends

.subckt PM_SKY130_FD_SC_LS__SDFRTP_4%SCE 2 5 7 9 11 12 14 15 17 20 21 22 25 30
+ 31 32 44 53 55
c87 15 0 1.86316e-19 $X=2.785 $Y=1.05
r88 44 53 1.90404 $w=3.43e-07 $l=5.7e-08 $layer=LI1_cond $X=1.623 $Y=1.662
+ $X2=1.68 $Y2=1.662
r89 41 42 96.8533 $w=1.7e-07 $l=2.55e-07 $layer=licon1_POLY $count=1 $X=1.45
+ $Y=1.67 $X2=1.45 $Y2=1.67
r90 38 41 118.906 $w=3.3e-07 $l=6.8e-07 $layer=POLY_cond $X=0.77 $Y=1.67
+ $X2=1.45 $Y2=1.67
r91 32 55 6.34154 $w=3.43e-07 $l=1.01e-07 $layer=LI1_cond $X=1.694 $Y=1.662
+ $X2=1.795 $Y2=1.662
r92 32 53 0.467658 $w=3.43e-07 $l=1.4e-08 $layer=LI1_cond $X=1.694 $Y=1.662
+ $X2=1.68 $Y2=1.662
r93 32 44 0.467658 $w=3.43e-07 $l=1.4e-08 $layer=LI1_cond $X=1.609 $Y=1.662
+ $X2=1.623 $Y2=1.662
r94 32 42 5.31126 $w=3.43e-07 $l=1.59e-07 $layer=LI1_cond $X=1.609 $Y=1.662
+ $X2=1.45 $Y2=1.662
r95 31 42 8.35104 $w=3.43e-07 $l=2.5e-07 $layer=LI1_cond $X=1.2 $Y=1.662
+ $X2=1.45 $Y2=1.662
r96 30 31 16.034 $w=3.43e-07 $l=4.8e-07 $layer=LI1_cond $X=0.72 $Y=1.662 $X2=1.2
+ $Y2=1.662
r97 30 38 96.8533 $w=1.7e-07 $l=2.55e-07 $layer=licon1_POLY $count=1 $X=0.77
+ $Y=1.67 $X2=0.77 $Y2=1.67
r98 25 28 5.23838 $w=3.28e-07 $l=1.5e-07 $layer=LI1_cond $X=2.57 $Y=1.425
+ $X2=2.57 $Y2=1.575
r99 25 26 145.28 $w=1.7e-07 $l=1.7e-07 $layer=licon1_POLY $count=1 $X=2.565
+ $Y=1.425 $X2=2.565 $Y2=1.425
r100 22 28 4.62375 $w=1.7e-07 $l=1.65e-07 $layer=LI1_cond $X=2.405 $Y=1.575
+ $X2=2.57 $Y2=1.575
r101 22 55 39.7968 $w=1.68e-07 $l=6.1e-07 $layer=LI1_cond $X=2.405 $Y=1.575
+ $X2=1.795 $Y2=1.575
r102 21 41 14.8632 $w=3.3e-07 $l=8.5e-08 $layer=POLY_cond $X=1.535 $Y=1.67
+ $X2=1.45 $Y2=1.67
r103 19 38 30.6007 $w=3.3e-07 $l=1.75e-07 $layer=POLY_cond $X=0.595 $Y=1.67
+ $X2=0.77 $Y2=1.67
r104 19 20 3.90195 $w=3.3e-07 $l=9e-08 $layer=POLY_cond $X=0.595 $Y=1.67
+ $X2=0.505 $Y2=1.67
r105 15 26 72.7678 $w=2.96e-07 $l=4.45814e-07 $layer=POLY_cond $X=2.785 $Y=1.05
+ $X2=2.63 $Y2=1.425
r106 15 17 223.053 $w=1.5e-07 $l=4.35e-07 $layer=POLY_cond $X=2.785 $Y=1.05
+ $X2=2.785 $Y2=0.615
r107 12 14 126.927 $w=1.5e-07 $l=3.95e-07 $layer=POLY_cond $X=1.625 $Y=2.245
+ $X2=1.625 $Y2=2.64
r108 11 12 36.0588 $w=1.8e-07 $l=9e-08 $layer=POLY_cond $X=1.625 $Y=2.155
+ $X2=1.625 $Y2=2.245
r109 10 21 30.0773 $w=3.3e-07 $l=2.05122e-07 $layer=POLY_cond $X=1.625 $Y=1.835
+ $X2=1.535 $Y2=1.67
r110 10 11 124.387 $w=1.8e-07 $l=3.2e-07 $layer=POLY_cond $X=1.625 $Y=1.835
+ $X2=1.625 $Y2=2.155
r111 7 9 126.927 $w=1.5e-07 $l=3.95e-07 $layer=POLY_cond $X=0.505 $Y=2.245
+ $X2=0.505 $Y2=2.64
r112 3 20 34.7346 $w=1.65e-07 $l=1.69926e-07 $layer=POLY_cond $X=0.495 $Y=1.505
+ $X2=0.505 $Y2=1.67
r113 3 5 474.309 $w=1.5e-07 $l=9.25e-07 $layer=POLY_cond $X=0.495 $Y=1.505
+ $X2=0.495 $Y2=0.58
r114 2 7 36.0588 $w=1.8e-07 $l=9e-08 $layer=POLY_cond $X=0.505 $Y=2.155
+ $X2=0.505 $Y2=2.245
r115 1 20 34.7346 $w=1.65e-07 $l=1.65e-07 $layer=POLY_cond $X=0.505 $Y=1.835
+ $X2=0.505 $Y2=1.67
r116 1 2 124.387 $w=1.8e-07 $l=3.2e-07 $layer=POLY_cond $X=0.505 $Y=1.835
+ $X2=0.505 $Y2=2.155
.ends

.subckt PM_SKY130_FD_SC_LS__SDFRTP_4%D 3 5 6 8 9 12 13 14
c46 6 0 1.02897e-20 $X=2.045 $Y=2.245
r47 12 15 40.9207 $w=3.65e-07 $l=1.65e-07 $layer=POLY_cond $X=1.952 $Y=1.1
+ $X2=1.952 $Y2=1.265
r48 12 14 46.6671 $w=3.65e-07 $l=1.65e-07 $layer=POLY_cond $X=1.952 $Y=1.1
+ $X2=1.952 $Y2=0.935
r49 12 13 145.28 $w=1.7e-07 $l=1.7e-07 $layer=licon1_POLY $count=1 $X=1.935
+ $Y=1.1 $X2=1.935 $Y2=1.1
r50 9 13 6.7033 $w=4.53e-07 $l=2.55e-07 $layer=LI1_cond $X=1.68 $Y=1.037
+ $X2=1.935 $Y2=1.037
r51 6 8 126.927 $w=1.5e-07 $l=3.95e-07 $layer=POLY_cond $X=2.045 $Y=2.245
+ $X2=2.045 $Y2=2.64
r52 5 6 36.0588 $w=1.8e-07 $l=9e-08 $layer=POLY_cond $X=2.045 $Y=2.155 $X2=2.045
+ $Y2=2.245
r53 5 15 345.952 $w=1.8e-07 $l=8.9e-07 $layer=POLY_cond $X=2.045 $Y=2.155
+ $X2=2.045 $Y2=1.265
r54 3 14 102.827 $w=1.5e-07 $l=3.2e-07 $layer=POLY_cond $X=2 $Y=0.615 $X2=2
+ $Y2=0.935
.ends

.subckt PM_SKY130_FD_SC_LS__SDFRTP_4%SCD 1 3 6 10 11 12 16
c43 11 0 1.86316e-19 $X=3.12 $Y=1.665
r44 11 12 15.0167 $w=3.28e-07 $l=4.3e-07 $layer=LI1_cond $X=3.11 $Y=1.605
+ $X2=3.11 $Y2=2.035
r45 11 16 72.64 $w=1.7e-07 $l=3.4e-07 $layer=licon1_POLY $count=2 $X=3.105
+ $Y=1.605 $X2=3.105 $Y2=1.605
r46 10 16 59.4528 $w=3.3e-07 $l=3.4e-07 $layer=POLY_cond $X=3.105 $Y=1.945
+ $X2=3.105 $Y2=1.605
r47 9 16 40.0117 $w=3.3e-07 $l=1.65e-07 $layer=POLY_cond $X=3.105 $Y=1.44
+ $X2=3.105 $Y2=1.605
r48 6 9 423.032 $w=1.5e-07 $l=8.25e-07 $layer=POLY_cond $X=3.145 $Y=0.615
+ $X2=3.145 $Y2=1.44
r49 1 10 54.7727 $w=2.64e-07 $l=3.33167e-07 $layer=POLY_cond $X=3.035 $Y=2.245
+ $X2=3.105 $Y2=1.945
r50 1 3 126.927 $w=1.5e-07 $l=3.95e-07 $layer=POLY_cond $X=3.035 $Y=2.245
+ $X2=3.035 $Y2=2.64
.ends

.subckt PM_SKY130_FD_SC_LS__SDFRTP_4%CLK 1 3 6 10
c54 10 0 1.48635e-19 $X=4.08 $Y=1.295
c55 1 0 1.68197e-19 $X=4.605 $Y=1.41
r56 13 14 145.28 $w=1.7e-07 $l=1.7e-07 $layer=licon1_POLY $count=1 $X=4.005
+ $Y=1.455 $X2=4.005 $Y2=1.455
r57 10 14 2.10813 $w=4.08e-07 $l=7.5e-08 $layer=LI1_cond $X=4.08 $Y=1.385
+ $X2=4.005 $Y2=1.385
r58 4 16 21.5811 $w=1.5e-07 $l=2.55e-07 $layer=POLY_cond $X=4.645 $Y=1.8
+ $X2=4.645 $Y2=1.545
r59 4 6 338.426 $w=1.5e-07 $l=6.6e-07 $layer=POLY_cond $X=4.645 $Y=1.8 $X2=4.645
+ $Y2=2.46
r60 1 16 5.75522 $w=3.35e-07 $l=4e-08 $layer=POLY_cond $X=4.605 $Y=1.545
+ $X2=4.645 $Y2=1.545
r61 1 13 86.3284 $w=3.35e-07 $l=6e-07 $layer=POLY_cond $X=4.605 $Y=1.545
+ $X2=4.005 $Y2=1.545
r62 1 3 142.993 $w=1.5e-07 $l=4.45e-07 $layer=POLY_cond $X=4.605 $Y=1.41
+ $X2=4.605 $Y2=0.965
.ends

.subckt PM_SKY130_FD_SC_LS__SDFRTP_4%A_1034_392# 1 2 8 9 11 12 16 18 20 21 22 23
+ 25 29 31 32 33 34 36 39 42 43 44 46 48 49 51 58 59 67 68 70
c229 70 0 1.2914e-19 $X=6.065 $Y=1.66
c230 68 0 1.40436e-19 $X=9.33 $Y=1.07
c231 67 0 1.39722e-19 $X=9.25 $Y=1.07
c232 58 0 2.21688e-19 $X=5.407 $Y=1.24
c233 31 0 7.48709e-20 $X=5.535 $Y=1.585
r234 67 76 15.7375 $w=3.3e-07 $l=9e-08 $layer=POLY_cond $X=9.25 $Y=1.07 $X2=9.25
+ $Y2=1.16
r235 66 68 2.7938 $w=3.28e-07 $l=8e-08 $layer=LI1_cond $X=9.25 $Y=1.07 $X2=9.33
+ $Y2=1.07
r236 66 67 145.28 $w=1.7e-07 $l=1.7e-07 $layer=licon1_POLY $count=1 $X=9.25
+ $Y=1.07 $X2=9.25 $Y2=1.07
r237 63 66 11.8737 $w=3.28e-07 $l=3.4e-07 $layer=LI1_cond $X=8.91 $Y=1.07
+ $X2=9.25 $Y2=1.07
r238 59 61 16.3102 $w=1.68e-07 $l=2.5e-07 $layer=LI1_cond $X=7.14 $Y=0.415
+ $X2=7.14 $Y2=0.665
r239 57 58 13.0794 $w=4.03e-07 $l=3.2e-07 $layer=LI1_cond $X=5.407 $Y=0.92
+ $X2=5.407 $Y2=1.24
r240 51 52 145.28 $w=1.7e-07 $l=1.7e-07 $layer=licon1_POLY $count=1 $X=9.79
+ $Y=2.215 $X2=9.79 $Y2=2.215
r241 49 51 13.7196 $w=3.13e-07 $l=3.75e-07 $layer=LI1_cond $X=9.415 $Y=2.222
+ $X2=9.79 $Y2=2.222
r242 48 49 7.64049 $w=3.15e-07 $l=1.94921e-07 $layer=LI1_cond $X=9.33 $Y=2.065
+ $X2=9.415 $Y2=2.222
r243 47 68 4.62375 $w=1.7e-07 $l=1.65e-07 $layer=LI1_cond $X=9.33 $Y=1.235
+ $X2=9.33 $Y2=1.07
r244 47 48 54.1497 $w=1.68e-07 $l=8.3e-07 $layer=LI1_cond $X=9.33 $Y=1.235
+ $X2=9.33 $Y2=2.065
r245 46 63 4.62375 $w=1.7e-07 $l=1.65e-07 $layer=LI1_cond $X=8.91 $Y=0.905
+ $X2=8.91 $Y2=1.07
r246 45 46 31.3155 $w=1.68e-07 $l=4.8e-07 $layer=LI1_cond $X=8.91 $Y=0.425
+ $X2=8.91 $Y2=0.905
r247 43 45 6.81649 $w=1.7e-07 $l=1.20208e-07 $layer=LI1_cond $X=8.825 $Y=0.34
+ $X2=8.91 $Y2=0.425
r248 43 44 47.2995 $w=1.68e-07 $l=7.25e-07 $layer=LI1_cond $X=8.825 $Y=0.34
+ $X2=8.1 $Y2=0.34
r249 41 44 6.81649 $w=1.7e-07 $l=1.20208e-07 $layer=LI1_cond $X=8.015 $Y=0.425
+ $X2=8.1 $Y2=0.34
r250 41 42 10.1123 $w=1.68e-07 $l=1.55e-07 $layer=LI1_cond $X=8.015 $Y=0.425
+ $X2=8.015 $Y2=0.58
r251 40 61 0.716491 $w=1.7e-07 $l=8.5e-08 $layer=LI1_cond $X=7.225 $Y=0.665
+ $X2=7.14 $Y2=0.665
r252 39 42 6.81649 $w=1.7e-07 $l=1.20208e-07 $layer=LI1_cond $X=7.93 $Y=0.665
+ $X2=8.015 $Y2=0.58
r253 39 40 45.9947 $w=1.68e-07 $l=7.05e-07 $layer=LI1_cond $X=7.93 $Y=0.665
+ $X2=7.225 $Y2=0.665
r254 37 73 40.6903 $w=3.3e-07 $l=1.65e-07 $layer=POLY_cond $X=6.065 $Y=1.75
+ $X2=6.065 $Y2=1.915
r255 37 70 15.7375 $w=3.3e-07 $l=9e-08 $layer=POLY_cond $X=6.065 $Y=1.75
+ $X2=6.065 $Y2=1.66
r256 36 37 145.28 $w=1.7e-07 $l=1.7e-07 $layer=licon1_POLY $count=1 $X=6.065
+ $Y=1.75 $X2=6.065 $Y2=1.75
r257 34 56 11.5779 $w=3.53e-07 $l=4.42691e-07 $layer=LI1_cond $X=5.655 $Y=1.75
+ $X2=5.405 $Y2=2.085
r258 34 36 14.3182 $w=3.28e-07 $l=4.1e-07 $layer=LI1_cond $X=5.655 $Y=1.75
+ $X2=6.065 $Y2=1.75
r259 32 59 0.716491 $w=1.7e-07 $l=8.5e-08 $layer=LI1_cond $X=7.055 $Y=0.415
+ $X2=7.14 $Y2=0.415
r260 32 33 93.6203 $w=1.68e-07 $l=1.435e-06 $layer=LI1_cond $X=7.055 $Y=0.415
+ $X2=5.62 $Y2=0.415
r261 31 34 8.99262 $w=3.53e-07 $l=2.16852e-07 $layer=LI1_cond $X=5.535 $Y=1.585
+ $X2=5.655 $Y2=1.75
r262 31 58 22.508 $w=1.68e-07 $l=3.45e-07 $layer=LI1_cond $X=5.535 $Y=1.585
+ $X2=5.535 $Y2=1.24
r263 29 57 4.97969 $w=4.03e-07 $l=1.75e-07 $layer=LI1_cond $X=5.417 $Y=0.745
+ $X2=5.417 $Y2=0.92
r264 26 33 8.41448 $w=1.7e-07 $l=2.41793e-07 $layer=LI1_cond $X=5.417 $Y=0.5
+ $X2=5.62 $Y2=0.415
r265 26 29 6.97157 $w=4.03e-07 $l=2.45e-07 $layer=LI1_cond $X=5.417 $Y=0.5
+ $X2=5.417 $Y2=0.745
r266 23 52 52.2586 $w=2.99e-07 $l=2.7157e-07 $layer=POLY_cond $X=9.835 $Y=2.465
+ $X2=9.79 $Y2=2.215
r267 23 25 91.58 $w=1.5e-07 $l=2.85e-07 $layer=POLY_cond $X=9.835 $Y=2.465
+ $X2=9.835 $Y2=2.75
r268 21 76 21.2229 $w=1.5e-07 $l=1.65e-07 $layer=POLY_cond $X=9.085 $Y=1.16
+ $X2=9.25 $Y2=1.16
r269 21 22 184.596 $w=1.5e-07 $l=3.6e-07 $layer=POLY_cond $X=9.085 $Y=1.16
+ $X2=8.725 $Y2=1.16
r270 18 22 26.9307 $w=1.5e-07 $l=1.06066e-07 $layer=POLY_cond $X=8.65 $Y=1.085
+ $X2=8.725 $Y2=1.16
r271 18 20 126.927 $w=1.5e-07 $l=3.95e-07 $layer=POLY_cond $X=8.65 $Y=1.085
+ $X2=8.65 $Y2=0.69
r272 14 16 351.245 $w=1.5e-07 $l=6.85e-07 $layer=POLY_cond $X=6.535 $Y=1.585
+ $X2=6.535 $Y2=0.9
r273 13 70 21.2229 $w=1.5e-07 $l=1.65e-07 $layer=POLY_cond $X=6.23 $Y=1.66
+ $X2=6.065 $Y2=1.66
r274 12 14 26.9307 $w=1.5e-07 $l=1.06066e-07 $layer=POLY_cond $X=6.46 $Y=1.66
+ $X2=6.535 $Y2=1.585
r275 12 13 117.936 $w=1.5e-07 $l=2.3e-07 $layer=POLY_cond $X=6.46 $Y=1.66
+ $X2=6.23 $Y2=1.66
r276 9 11 91.58 $w=1.5e-07 $l=2.85e-07 $layer=POLY_cond $X=6.135 $Y=2.24
+ $X2=6.135 $Y2=2.525
r277 8 9 36.0588 $w=1.8e-07 $l=9e-08 $layer=POLY_cond $X=6.135 $Y=2.15 $X2=6.135
+ $Y2=2.24
r278 8 73 91.3468 $w=1.8e-07 $l=2.35e-07 $layer=POLY_cond $X=6.135 $Y=2.15
+ $X2=6.135 $Y2=1.915
r279 2 56 600 $w=1.7e-07 $l=2.03101e-07 $layer=licon1_PDIFF $count=1 $X=5.17
+ $Y=1.96 $X2=5.32 $Y2=2.085
r280 1 29 91 $w=1.7e-07 $l=2.08567e-07 $layer=licon1_NDIFF $count=2 $X=5.23
+ $Y=0.595 $X2=5.37 $Y2=0.745
.ends

.subckt PM_SKY130_FD_SC_LS__SDFRTP_4%A_1367_112# 1 2 9 12 13 15 18 19 22 24 25
+ 27 33 34
c110 34 0 2.99465e-19 $X=8.57 $Y=0.842
c111 22 0 1.09068e-19 $X=7.325 $Y=1.005
c112 18 0 3.61087e-19 $X=7.19 $Y=1.78
c113 9 0 1.54393e-19 $X=6.91 $Y=0.9
r114 40 42 20.109 $w=3.3e-07 $l=1.15e-07 $layer=POLY_cond $X=6.91 $Y=1.78
+ $X2=7.025 $Y2=1.78
r115 32 34 3.26203 $w=4.93e-07 $l=1.35e-07 $layer=LI1_cond $X=8.435 $Y=0.842
+ $X2=8.57 $Y2=0.842
r116 32 33 9.48656 $w=4.93e-07 $l=1.65e-07 $layer=LI1_cond $X=8.435 $Y=0.842
+ $X2=8.27 $Y2=0.842
r117 27 29 24.795 $w=3.28e-07 $l=7.1e-07 $layer=LI1_cond $X=8.9 $Y=1.88 $X2=8.9
+ $Y2=2.59
r118 25 36 21.5294 $w=1.68e-07 $l=3.3e-07 $layer=LI1_cond $X=8.9 $Y=1.49
+ $X2=8.57 $Y2=1.49
r119 25 27 10.6514 $w=3.28e-07 $l=3.05e-07 $layer=LI1_cond $X=8.9 $Y=1.575
+ $X2=8.9 $Y2=1.88
r120 24 36 0.716491 $w=1.7e-07 $l=8.5e-08 $layer=LI1_cond $X=8.57 $Y=1.405
+ $X2=8.57 $Y2=1.49
r121 23 34 7.09362 $w=1.7e-07 $l=2.48e-07 $layer=LI1_cond $X=8.57 $Y=1.09
+ $X2=8.57 $Y2=0.842
r122 23 24 20.5508 $w=1.68e-07 $l=3.15e-07 $layer=LI1_cond $X=8.57 $Y=1.09
+ $X2=8.57 $Y2=1.405
r123 22 33 61.6524 $w=1.68e-07 $l=9.45e-07 $layer=LI1_cond $X=7.325 $Y=1.005
+ $X2=8.27 $Y2=1.005
r124 19 42 28.8521 $w=3.3e-07 $l=1.65e-07 $layer=POLY_cond $X=7.19 $Y=1.78
+ $X2=7.025 $Y2=1.78
r125 18 19 145.28 $w=1.7e-07 $l=1.7e-07 $layer=licon1_POLY $count=1 $X=7.19
+ $Y=1.78 $X2=7.19 $Y2=1.78
r126 16 22 7.28469 $w=1.7e-07 $l=1.72337e-07 $layer=LI1_cond $X=7.19 $Y=1.09
+ $X2=7.325 $Y2=1.005
r127 16 18 29.4513 $w=2.68e-07 $l=6.9e-07 $layer=LI1_cond $X=7.19 $Y=1.09
+ $X2=7.19 $Y2=1.78
r128 13 15 91.58 $w=1.5e-07 $l=2.85e-07 $layer=POLY_cond $X=7.025 $Y=2.24
+ $X2=7.025 $Y2=2.525
r129 12 13 36.0588 $w=1.8e-07 $l=9e-08 $layer=POLY_cond $X=7.025 $Y=2.15
+ $X2=7.025 $Y2=2.24
r130 11 42 16.9318 $w=1.8e-07 $l=1.65e-07 $layer=POLY_cond $X=7.025 $Y=1.945
+ $X2=7.025 $Y2=1.78
r131 11 12 79.6855 $w=1.8e-07 $l=2.05e-07 $layer=POLY_cond $X=7.025 $Y=1.945
+ $X2=7.025 $Y2=2.15
r132 7 40 21.2229 $w=1.5e-07 $l=1.65e-07 $layer=POLY_cond $X=6.91 $Y=1.615
+ $X2=6.91 $Y2=1.78
r133 7 9 366.628 $w=1.5e-07 $l=7.15e-07 $layer=POLY_cond $X=6.91 $Y=1.615
+ $X2=6.91 $Y2=0.9
r134 2 29 400 $w=1.7e-07 $l=9.26971e-07 $layer=licon1_PDIFF $count=1 $X=8.75
+ $Y=1.735 $X2=8.9 $Y2=2.59
r135 2 27 400 $w=1.7e-07 $l=2.10357e-07 $layer=licon1_PDIFF $count=1 $X=8.75
+ $Y=1.735 $X2=8.9 $Y2=1.88
r136 1 32 182 $w=1.7e-07 $l=5.24404e-07 $layer=licon1_NDIFF $count=1 $X=8.25
+ $Y=0.37 $X2=8.435 $Y2=0.81
.ends

.subckt PM_SKY130_FD_SC_LS__SDFRTP_4%RESET_B 2 6 7 9 10 11 15 16 17 18 20 22 25
+ 28 29 31 33 34 35 36 37 44 45 48 51 53 61 62
c226 53 0 1.27018e-19 $X=7.67 $Y=2.03
c227 10 0 1.62559e-19 $X=7.225 $Y=0.18
c228 7 0 9.42244e-20 $X=3.605 $Y=2.245
r229 60 62 33.2236 $w=3.3e-07 $l=1.9e-07 $layer=POLY_cond $X=10.75 $Y=1.985
+ $X2=10.94 $Y2=1.985
r230 60 61 145.28 $w=1.7e-07 $l=1.7e-07 $layer=licon1_POLY $count=1 $X=10.75
+ $Y=1.985 $X2=10.75 $Y2=1.985
r231 57 60 20.9834 $w=3.3e-07 $l=1.2e-07 $layer=POLY_cond $X=10.63 $Y=1.985
+ $X2=10.75 $Y2=1.985
r232 53 55 41.7374 $w=3.58e-07 $l=3.1e-07 $layer=POLY_cond $X=7.67 $Y=2.03
+ $X2=7.98 $Y2=2.03
r233 52 53 0.673184 $w=3.58e-07 $l=5e-09 $layer=POLY_cond $X=7.665 $Y=2.03
+ $X2=7.67 $Y2=2.03
r234 50 51 145.28 $w=1.7e-07 $l=1.7e-07 $layer=licon1_POLY $count=1 $X=3.95
+ $Y=1.995 $X2=3.95 $Y2=1.995
r235 48 50 46.4497 $w=3.58e-07 $l=3.45e-07 $layer=POLY_cond $X=3.605 $Y=2.037
+ $X2=3.95 $Y2=2.037
r236 47 48 6.73184 $w=3.58e-07 $l=5e-08 $layer=POLY_cond $X=3.555 $Y=2.037
+ $X2=3.605 $Y2=2.037
r237 45 61 9.3 $w=1.7e-07 $l=1.7e-07 $layer=mcon $count=1 $X=10.8 $Y=2.035
+ $X2=10.8 $Y2=2.035
r238 44 55 145.28 $w=1.7e-07 $l=1.7e-07 $layer=licon1_POLY $count=1 $X=7.98
+ $Y=1.985 $X2=7.98 $Y2=1.985
r239 43 44 9.3 $w=1.7e-07 $l=1.7e-07 $layer=mcon $count=1 $X=7.92 $Y=2.035
+ $X2=7.92 $Y2=2.035
r240 39 51 9.3 $w=1.7e-07 $l=1.7e-07 $layer=mcon $count=1 $X=4.08 $Y=2.035
+ $X2=4.08 $Y2=2.035
r241 37 43 0.115467 $w=2.3e-07 $l=1.45e-07 $layer=MET1_cond $X=8.065 $Y=2.035
+ $X2=7.92 $Y2=2.035
r242 36 45 0.115467 $w=2.3e-07 $l=1.45e-07 $layer=MET1_cond $X=10.655 $Y=2.035
+ $X2=10.8 $Y2=2.035
r243 36 37 3.20544 $w=1.4e-07 $l=2.59e-06 $layer=MET1_cond $X=10.655 $Y=2.035
+ $X2=8.065 $Y2=2.035
r244 35 39 0.115467 $w=2.3e-07 $l=1.45e-07 $layer=MET1_cond $X=4.225 $Y=2.035
+ $X2=4.08 $Y2=2.035
r245 34 43 0.115467 $w=2.3e-07 $l=1.45e-07 $layer=MET1_cond $X=7.775 $Y=2.035
+ $X2=7.92 $Y2=2.035
r246 34 35 4.39356 $w=1.4e-07 $l=3.55e-06 $layer=MET1_cond $X=7.775 $Y=2.035
+ $X2=4.225 $Y2=2.035
r247 32 33 40.1667 $w=1.7e-07 $l=9.5e-08 $layer=POLY_cond $X=3.565 $Y=0.965
+ $X2=3.565 $Y2=1.06
r248 29 31 91.58 $w=1.5e-07 $l=2.85e-07 $layer=POLY_cond $X=10.94 $Y=2.465
+ $X2=10.94 $Y2=2.75
r249 28 29 36.0588 $w=1.8e-07 $l=9e-08 $layer=POLY_cond $X=10.94 $Y=2.375
+ $X2=10.94 $Y2=2.465
r250 27 62 16.9318 $w=1.8e-07 $l=1.65e-07 $layer=POLY_cond $X=10.94 $Y=2.15
+ $X2=10.94 $Y2=1.985
r251 27 28 87.4597 $w=1.8e-07 $l=2.25e-07 $layer=POLY_cond $X=10.94 $Y=2.15
+ $X2=10.94 $Y2=2.375
r252 23 57 21.2229 $w=1.5e-07 $l=1.65e-07 $layer=POLY_cond $X=10.63 $Y=1.82
+ $X2=10.63 $Y2=1.985
r253 23 25 635.83 $w=1.5e-07 $l=1.24e-06 $layer=POLY_cond $X=10.63 $Y=1.82
+ $X2=10.63 $Y2=0.58
r254 22 53 23.1716 $w=1.5e-07 $l=2.1e-07 $layer=POLY_cond $X=7.67 $Y=1.82
+ $X2=7.67 $Y2=2.03
r255 21 22 248.691 $w=1.5e-07 $l=4.85e-07 $layer=POLY_cond $X=7.67 $Y=1.335
+ $X2=7.67 $Y2=1.82
r256 18 52 23.1716 $w=1.5e-07 $l=2.1e-07 $layer=POLY_cond $X=7.665 $Y=2.24
+ $X2=7.665 $Y2=2.03
r257 18 20 91.58 $w=1.5e-07 $l=2.85e-07 $layer=POLY_cond $X=7.665 $Y=2.24
+ $X2=7.665 $Y2=2.525
r258 16 21 26.9307 $w=1.5e-07 $l=1.06066e-07 $layer=POLY_cond $X=7.595 $Y=1.26
+ $X2=7.67 $Y2=1.335
r259 16 17 112.809 $w=1.5e-07 $l=2.2e-07 $layer=POLY_cond $X=7.595 $Y=1.26
+ $X2=7.375 $Y2=1.26
r260 13 17 26.9307 $w=1.5e-07 $l=1.06066e-07 $layer=POLY_cond $X=7.3 $Y=1.185
+ $X2=7.375 $Y2=1.26
r261 13 15 146.138 $w=1.5e-07 $l=2.85e-07 $layer=POLY_cond $X=7.3 $Y=1.185
+ $X2=7.3 $Y2=0.9
r262 12 15 330.734 $w=1.5e-07 $l=6.45e-07 $layer=POLY_cond $X=7.3 $Y=0.255
+ $X2=7.3 $Y2=0.9
r263 10 12 26.9307 $w=1.5e-07 $l=1.06066e-07 $layer=POLY_cond $X=7.225 $Y=0.18
+ $X2=7.3 $Y2=0.255
r264 10 11 1833.14 $w=1.5e-07 $l=3.575e-06 $layer=POLY_cond $X=7.225 $Y=0.18
+ $X2=3.65 $Y2=0.18
r265 7 48 23.1716 $w=1.5e-07 $l=2.08e-07 $layer=POLY_cond $X=3.605 $Y=2.245
+ $X2=3.605 $Y2=2.037
r266 7 9 126.927 $w=1.5e-07 $l=3.95e-07 $layer=POLY_cond $X=3.605 $Y=2.245
+ $X2=3.605 $Y2=2.64
r267 6 32 179.468 $w=1.5e-07 $l=3.5e-07 $layer=POLY_cond $X=3.575 $Y=0.615
+ $X2=3.575 $Y2=0.965
r268 3 11 26.9307 $w=1.5e-07 $l=1.06066e-07 $layer=POLY_cond $X=3.575 $Y=0.255
+ $X2=3.65 $Y2=0.18
r269 3 6 184.596 $w=1.5e-07 $l=3.6e-07 $layer=POLY_cond $X=3.575 $Y=0.255
+ $X2=3.575 $Y2=0.615
r270 2 47 23.1716 $w=1.5e-07 $l=2.07e-07 $layer=POLY_cond $X=3.555 $Y=1.83
+ $X2=3.555 $Y2=2.037
r271 2 33 394.83 $w=1.5e-07 $l=7.7e-07 $layer=POLY_cond $X=3.555 $Y=1.83
+ $X2=3.555 $Y2=1.06
.ends

.subckt PM_SKY130_FD_SC_LS__SDFRTP_4%A_1236_138# 1 2 3 12 14 16 18 19 23 26 27
+ 30 31 33 34 37 41
c135 34 0 7.6904e-20 $X=8.15 $Y=1.41
c136 27 0 9.53373e-20 $X=7.495 $Y=2.405
c137 23 0 6.13201e-21 $X=6.715 $Y=0.99
c138 12 0 3.00719e-20 $X=8.175 $Y=0.74
r139 37 39 4.46107 $w=3.08e-07 $l=1.2e-07 $layer=LI1_cond $X=6.315 $Y=0.87
+ $X2=6.315 $Y2=0.99
r140 34 47 19.2347 $w=3.3e-07 $l=1.1e-07 $layer=POLY_cond $X=8.15 $Y=1.41
+ $X2=8.15 $Y2=1.52
r141 34 46 46.2115 $w=3.3e-07 $l=1.65e-07 $layer=POLY_cond $X=8.15 $Y=1.41
+ $X2=8.15 $Y2=1.245
r142 33 34 145.28 $w=1.7e-07 $l=1.7e-07 $layer=licon1_POLY $count=1 $X=8.15
+ $Y=1.41 $X2=8.15 $Y2=1.41
r143 31 33 17.744 $w=3.13e-07 $l=4.85e-07 $layer=LI1_cond $X=7.665 $Y=1.417
+ $X2=8.15 $Y2=1.417
r144 30 44 11.6012 $w=3.26e-07 $l=4.04191e-07 $layer=LI1_cond $X=7.58 $Y=2.32
+ $X2=7.89 $Y2=2.537
r145 29 31 7.64049 $w=3.15e-07 $l=1.95944e-07 $layer=LI1_cond $X=7.58 $Y=1.575
+ $X2=7.665 $Y2=1.417
r146 29 30 48.6043 $w=1.68e-07 $l=7.45e-07 $layer=LI1_cond $X=7.58 $Y=1.575
+ $X2=7.58 $Y2=2.32
r147 28 41 3.70735 $w=2.5e-07 $l=1.69245e-07 $layer=LI1_cond $X=6.885 $Y=2.405
+ $X2=6.8 $Y2=2.537
r148 27 30 5.9625 $w=3.26e-07 $l=1.20208e-07 $layer=LI1_cond $X=7.495 $Y=2.405
+ $X2=7.58 $Y2=2.32
r149 27 28 39.7968 $w=1.68e-07 $l=6.1e-07 $layer=LI1_cond $X=7.495 $Y=2.405
+ $X2=6.885 $Y2=2.405
r150 26 41 2.76166 $w=1.7e-07 $l=2.17e-07 $layer=LI1_cond $X=6.8 $Y=2.32 $X2=6.8
+ $Y2=2.537
r151 25 26 81.2246 $w=1.68e-07 $l=1.245e-06 $layer=LI1_cond $X=6.8 $Y=1.075
+ $X2=6.8 $Y2=2.32
r152 24 39 4.25403 $w=1.7e-07 $l=1.55e-07 $layer=LI1_cond $X=6.47 $Y=0.99
+ $X2=6.315 $Y2=0.99
r153 23 25 6.81649 $w=1.7e-07 $l=1.20208e-07 $layer=LI1_cond $X=6.715 $Y=0.99
+ $X2=6.8 $Y2=1.075
r154 23 24 15.984 $w=1.68e-07 $l=2.45e-07 $layer=LI1_cond $X=6.715 $Y=0.99
+ $X2=6.47 $Y2=0.99
r155 19 41 3.70735 $w=2.5e-07 $l=1.08305e-07 $layer=LI1_cond $X=6.715 $Y=2.59
+ $X2=6.8 $Y2=2.537
r156 19 21 10.6514 $w=3.28e-07 $l=3.05e-07 $layer=LI1_cond $X=6.715 $Y=2.59
+ $X2=6.41 $Y2=2.59
r157 16 18 184.767 $w=1.5e-07 $l=5.75e-07 $layer=POLY_cond $X=8.675 $Y=1.66
+ $X2=8.675 $Y2=2.235
r158 15 47 21.2229 $w=1.5e-07 $l=1.65e-07 $layer=POLY_cond $X=8.315 $Y=1.52
+ $X2=8.15 $Y2=1.52
r159 14 16 26.9307 $w=1.5e-07 $l=1.79444e-07 $layer=POLY_cond $X=8.585 $Y=1.52
+ $X2=8.675 $Y2=1.66
r160 14 15 138.447 $w=1.5e-07 $l=2.7e-07 $layer=POLY_cond $X=8.585 $Y=1.52
+ $X2=8.315 $Y2=1.52
r161 12 46 258.947 $w=1.5e-07 $l=5.05e-07 $layer=POLY_cond $X=8.175 $Y=0.74
+ $X2=8.175 $Y2=1.245
r162 3 44 600 $w=1.7e-07 $l=2.85307e-07 $layer=licon1_PDIFF $count=1 $X=7.74
+ $Y=2.315 $X2=7.89 $Y2=2.535
r163 2 21 600 $w=1.7e-07 $l=3.61421e-07 $layer=licon1_PDIFF $count=1 $X=6.21
+ $Y=2.315 $X2=6.41 $Y2=2.59
r164 1 37 182 $w=1.7e-07 $l=2.4e-07 $layer=licon1_NDIFF $count=1 $X=6.18 $Y=0.69
+ $X2=6.32 $Y2=0.87
.ends

.subckt PM_SKY130_FD_SC_LS__SDFRTP_4%A_837_98# 1 2 9 13 14 16 17 18 19 20 22 24
+ 25 26 27 29 30 32 33 37 38 39 42 46 48 49 51 52 54 58 60 66 69 70
c205 69 0 3.00264e-19 $X=5.115 $Y=1.485
c206 60 0 9.42244e-20 $X=4.425 $Y=1.905
c207 38 0 1.10364e-19 $X=9.625 $Y=1.585
c208 22 0 6.13201e-21 $X=6.105 $Y=1.185
c209 17 0 4.8605e-20 $X=5.615 $Y=3.075
c210 9 0 4.7366e-20 $X=5.095 $Y=2.46
r211 69 70 30.474 $w=3.3e-07 $l=7.5e-08 $layer=POLY_cond $X=5.115 $Y=1.485
+ $X2=5.115 $Y2=1.41
r212 67 72 50.583 $w=3.3e-07 $l=1.9e-07 $layer=POLY_cond $X=5.115 $Y=1.61
+ $X2=5.115 $Y2=1.8
r213 67 69 21.8577 $w=3.3e-07 $l=1.25e-07 $layer=POLY_cond $X=5.115 $Y=1.61
+ $X2=5.115 $Y2=1.485
r214 66 67 145.28 $w=1.7e-07 $l=1.7e-07 $layer=licon1_POLY $count=1 $X=5.115
+ $Y=1.61 $X2=5.115 $Y2=1.61
r215 60 63 11.0909 $w=1.78e-07 $l=1.8e-07 $layer=LI1_cond $X=4.425 $Y=1.905
+ $X2=4.425 $Y2=2.085
r216 56 58 6.65455 $w=1.98e-07 $l=1.2e-07 $layer=LI1_cond $X=4.33 $Y=0.65
+ $X2=4.45 $Y2=0.65
r217 54 66 10.218 $w=3.43e-07 $l=2.6533e-07 $layer=LI1_cond $X=4.89 $Y=1.41
+ $X2=5.042 $Y2=1.61
r218 53 54 20.877 $w=1.68e-07 $l=3.2e-07 $layer=LI1_cond $X=4.89 $Y=1.09
+ $X2=4.89 $Y2=1.41
r219 51 53 6.81649 $w=1.7e-07 $l=1.20208e-07 $layer=LI1_cond $X=4.805 $Y=1.005
+ $X2=4.89 $Y2=1.09
r220 51 52 17.615 $w=1.68e-07 $l=2.7e-07 $layer=LI1_cond $X=4.805 $Y=1.005
+ $X2=4.535 $Y2=1.005
r221 50 60 1.06262 $w=1.7e-07 $l=9e-08 $layer=LI1_cond $X=4.515 $Y=1.905
+ $X2=4.425 $Y2=1.905
r222 49 66 10.4927 $w=3.43e-07 $l=3.96157e-07 $layer=LI1_cond $X=4.805 $Y=1.905
+ $X2=5.042 $Y2=1.61
r223 49 50 18.9198 $w=1.68e-07 $l=2.9e-07 $layer=LI1_cond $X=4.805 $Y=1.905
+ $X2=4.515 $Y2=1.905
r224 48 52 6.81649 $w=1.7e-07 $l=1.20208e-07 $layer=LI1_cond $X=4.45 $Y=0.92
+ $X2=4.535 $Y2=1.005
r225 47 58 1.68994 $w=1.7e-07 $l=1e-07 $layer=LI1_cond $X=4.45 $Y=0.75 $X2=4.45
+ $Y2=0.65
r226 47 48 11.0909 $w=1.68e-07 $l=1.7e-07 $layer=LI1_cond $X=4.45 $Y=0.75
+ $X2=4.45 $Y2=0.92
r227 44 45 69.0764 $w=1.57e-07 $l=2.25e-07 $layer=POLY_cond $X=5.63 $Y=1.26
+ $X2=5.63 $Y2=1.485
r228 40 42 476.872 $w=1.5e-07 $l=9.3e-07 $layer=POLY_cond $X=9.7 $Y=1.51 $X2=9.7
+ $Y2=0.58
r229 38 40 26.9307 $w=1.5e-07 $l=1.06066e-07 $layer=POLY_cond $X=9.625 $Y=1.585
+ $X2=9.7 $Y2=1.51
r230 38 39 217.926 $w=1.5e-07 $l=4.25e-07 $layer=POLY_cond $X=9.625 $Y=1.585
+ $X2=9.2 $Y2=1.585
r231 35 37 294.84 $w=1.5e-07 $l=5.75e-07 $layer=POLY_cond $X=9.125 $Y=2.81
+ $X2=9.125 $Y2=2.235
r232 34 39 26.9307 $w=1.5e-07 $l=1.06066e-07 $layer=POLY_cond $X=9.125 $Y=1.66
+ $X2=9.2 $Y2=1.585
r233 34 37 294.84 $w=1.5e-07 $l=5.75e-07 $layer=POLY_cond $X=9.125 $Y=1.66
+ $X2=9.125 $Y2=2.235
r234 32 35 36.0588 $w=1.8e-07 $l=9e-08 $layer=POLY_cond $X=9.125 $Y=2.9
+ $X2=9.125 $Y2=2.81
r235 32 33 68.0242 $w=1.8e-07 $l=1.75e-07 $layer=POLY_cond $X=9.125 $Y=2.9
+ $X2=9.125 $Y2=3.075
r236 31 46 23.6879 $w=1.5e-07 $l=9e-08 $layer=POLY_cond $X=6.725 $Y=3.15
+ $X2=6.635 $Y2=3.15
r237 30 33 27.2212 $w=1.5e-07 $l=1.21861e-07 $layer=POLY_cond $X=9.035 $Y=3.15
+ $X2=9.125 $Y2=3.075
r238 30 31 1184.49 $w=1.5e-07 $l=2.31e-06 $layer=POLY_cond $X=9.035 $Y=3.15
+ $X2=6.725 $Y2=3.15
r239 27 29 91.58 $w=1.5e-07 $l=2.85e-07 $layer=POLY_cond $X=6.635 $Y=2.81
+ $X2=6.635 $Y2=2.525
r240 26 46 2.7459 $w=1.8e-07 $l=7.5e-08 $layer=POLY_cond $X=6.635 $Y=3.075
+ $X2=6.635 $Y2=3.15
r241 25 27 36.0588 $w=1.8e-07 $l=9e-08 $layer=POLY_cond $X=6.635 $Y=2.9
+ $X2=6.635 $Y2=2.81
r242 25 26 68.0242 $w=1.8e-07 $l=1.75e-07 $layer=POLY_cond $X=6.635 $Y=2.9
+ $X2=6.635 $Y2=3.075
r243 22 24 91.58 $w=1.5e-07 $l=2.85e-07 $layer=POLY_cond $X=6.105 $Y=1.185
+ $X2=6.105 $Y2=0.9
r244 21 44 3.92347 $w=1.5e-07 $l=9e-08 $layer=POLY_cond $X=5.72 $Y=1.26 $X2=5.63
+ $Y2=1.26
r245 20 22 26.9307 $w=1.5e-07 $l=1.06066e-07 $layer=POLY_cond $X=6.03 $Y=1.26
+ $X2=6.105 $Y2=1.185
r246 20 21 158.957 $w=1.5e-07 $l=3.1e-07 $layer=POLY_cond $X=6.03 $Y=1.26
+ $X2=5.72 $Y2=1.26
r247 18 46 23.6879 $w=1.5e-07 $l=9e-08 $layer=POLY_cond $X=6.545 $Y=3.15
+ $X2=6.635 $Y2=3.15
r248 18 19 438.415 $w=1.5e-07 $l=8.55e-07 $layer=POLY_cond $X=6.545 $Y=3.15
+ $X2=5.69 $Y2=3.15
r249 17 19 26.9307 $w=1.5e-07 $l=1.06066e-07 $layer=POLY_cond $X=5.615 $Y=3.075
+ $X2=5.69 $Y2=3.15
r250 16 45 23.0255 $w=1.57e-07 $l=8.21584e-08 $layer=POLY_cond $X=5.615 $Y=1.56
+ $X2=5.63 $Y2=1.485
r251 16 17 776.84 $w=1.5e-07 $l=1.515e-06 $layer=POLY_cond $X=5.615 $Y=1.56
+ $X2=5.615 $Y2=3.075
r252 15 69 21.2229 $w=1.5e-07 $l=1.65e-07 $layer=POLY_cond $X=5.28 $Y=1.485
+ $X2=5.115 $Y2=1.485
r253 14 45 3.92347 $w=1.5e-07 $l=9e-08 $layer=POLY_cond $X=5.54 $Y=1.485
+ $X2=5.63 $Y2=1.485
r254 14 15 133.319 $w=1.5e-07 $l=2.6e-07 $layer=POLY_cond $X=5.54 $Y=1.485
+ $X2=5.28 $Y2=1.485
r255 13 70 142.993 $w=1.5e-07 $l=4.45e-07 $layer=POLY_cond $X=5.155 $Y=0.965
+ $X2=5.155 $Y2=1.41
r256 9 72 338.426 $w=1.5e-07 $l=6.6e-07 $layer=POLY_cond $X=5.095 $Y=2.46
+ $X2=5.095 $Y2=1.8
r257 2 63 600 $w=1.7e-07 $l=1.97864e-07 $layer=licon1_PDIFF $count=1 $X=4.275
+ $Y=1.96 $X2=4.42 $Y2=2.085
r258 1 56 182 $w=1.7e-07 $l=2.36643e-07 $layer=licon1_NDIFF $count=1 $X=4.185
+ $Y=0.49 $X2=4.33 $Y2=0.665
.ends

.subckt PM_SKY130_FD_SC_LS__SDFRTP_4%A_2003_48# 1 2 9 12 13 15 16 18 25 27 28 33
+ 34 37
c89 25 0 1.05829e-19 $X=11.5 $Y=1.385
r90 36 37 16.6364 $w=1.68e-07 $l=2.55e-07 $layer=LI1_cond $X=11.245 $Y=1.47
+ $X2=11.5 $Y2=1.47
r91 33 34 10.7321 $w=3.28e-07 $l=2.3e-07 $layer=LI1_cond $X=11.165 $Y=2.75
+ $X2=11.165 $Y2=2.52
r92 28 41 40.6903 $w=3.3e-07 $l=1.65e-07 $layer=POLY_cond $X=10.18 $Y=1.39
+ $X2=10.18 $Y2=1.555
r93 28 40 46.2115 $w=3.3e-07 $l=1.65e-07 $layer=POLY_cond $X=10.18 $Y=1.39
+ $X2=10.18 $Y2=1.225
r94 27 30 2.7938 $w=3.28e-07 $l=8e-08 $layer=LI1_cond $X=10.18 $Y=1.39 $X2=10.18
+ $Y2=1.47
r95 27 28 145.28 $w=1.7e-07 $l=1.7e-07 $layer=licon1_POLY $count=1 $X=10.18
+ $Y=1.39 $X2=10.18 $Y2=1.39
r96 25 37 0.716491 $w=1.7e-07 $l=8.5e-08 $layer=LI1_cond $X=11.5 $Y=1.385
+ $X2=11.5 $Y2=1.47
r97 24 25 43.7112 $w=1.68e-07 $l=6.7e-07 $layer=LI1_cond $X=11.5 $Y=0.715
+ $X2=11.5 $Y2=1.385
r98 22 36 0.716491 $w=1.7e-07 $l=8.5e-08 $layer=LI1_cond $X=11.245 $Y=1.555
+ $X2=11.245 $Y2=1.47
r99 22 34 62.9572 $w=1.68e-07 $l=9.65e-07 $layer=LI1_cond $X=11.245 $Y=1.555
+ $X2=11.245 $Y2=2.52
r100 18 24 7.76618 $w=3.3e-07 $l=2.03101e-07 $layer=LI1_cond $X=11.415 $Y=0.55
+ $X2=11.5 $Y2=0.715
r101 18 20 6.11144 $w=3.28e-07 $l=1.75e-07 $layer=LI1_cond $X=11.415 $Y=0.55
+ $X2=11.24 $Y2=0.55
r102 17 30 4.62375 $w=1.7e-07 $l=1.65e-07 $layer=LI1_cond $X=10.345 $Y=1.47
+ $X2=10.18 $Y2=1.47
r103 16 36 5.54545 $w=1.68e-07 $l=8.5e-08 $layer=LI1_cond $X=11.16 $Y=1.47
+ $X2=11.245 $Y2=1.47
r104 16 17 53.1711 $w=1.68e-07 $l=8.15e-07 $layer=LI1_cond $X=11.16 $Y=1.47
+ $X2=10.345 $Y2=1.47
r105 13 15 91.58 $w=1.5e-07 $l=2.85e-07 $layer=POLY_cond $X=10.255 $Y=2.465
+ $X2=10.255 $Y2=2.75
r106 12 13 36.0588 $w=1.8e-07 $l=9e-08 $layer=POLY_cond $X=10.255 $Y=2.375
+ $X2=10.255 $Y2=2.465
r107 12 41 318.742 $w=1.8e-07 $l=8.2e-07 $layer=POLY_cond $X=10.255 $Y=2.375
+ $X2=10.255 $Y2=1.555
r108 9 40 330.734 $w=1.5e-07 $l=6.45e-07 $layer=POLY_cond $X=10.09 $Y=0.58
+ $X2=10.09 $Y2=1.225
r109 2 33 600 $w=1.7e-07 $l=2.74955e-07 $layer=licon1_PDIFF $count=1 $X=11.015
+ $Y=2.54 $X2=11.165 $Y2=2.75