* File: sky130_fd_sc_ls__dfrbp_1.pex.spice
* Created: Fri Aug 28 13:13:49 2020
* Program "Calibre xRC"
* Version "v2018.4_34.26"
* Nominal Temperature: 27C
* Circuit Temperature: 27C
* 
.subckt PM_SKY130_FD_SC_LS__DFRBP_1%D 1 3 6 8 9 10 11 17 20 21
r34 20 22 45.79 $w=4.05e-07 $l=1.65e-07 $layer=POLY_cond $X=0.422 $Y=1.165
+ $X2=0.422 $Y2=1
r35 20 21 96.8533 $w=1.7e-07 $l=2.55e-07 $layer=licon1_POLY $count=1 $X=0.385
+ $Y=1.165 $X2=0.385 $Y2=1.165
r36 17 18 96.8533 $w=1.7e-07 $l=2.55e-07 $layer=licon1_POLY $count=1 $X=0.385
+ $Y=1.845 $X2=0.385 $Y2=1.845
r37 15 20 5.08091 $w=4.05e-07 $l=3.7e-08 $layer=POLY_cond $X=0.422 $Y=1.202
+ $X2=0.422 $Y2=1.165
r38 15 17 88.298 $w=4.05e-07 $l=6.43e-07 $layer=POLY_cond $X=0.422 $Y=1.202
+ $X2=0.422 $Y2=1.845
r39 11 18 5.5434 $w=3.93e-07 $l=1.9e-07 $layer=LI1_cond $X=0.322 $Y=2.035
+ $X2=0.322 $Y2=1.845
r40 10 18 5.25164 $w=3.93e-07 $l=1.8e-07 $layer=LI1_cond $X=0.322 $Y=1.665
+ $X2=0.322 $Y2=1.845
r41 9 10 10.795 $w=3.93e-07 $l=3.7e-07 $layer=LI1_cond $X=0.322 $Y=1.295
+ $X2=0.322 $Y2=1.665
r42 9 21 3.79285 $w=3.93e-07 $l=1.3e-07 $layer=LI1_cond $X=0.322 $Y=1.295
+ $X2=0.322 $Y2=1.165
r43 8 17 41.6085 $w=4.05e-07 $l=3.03e-07 $layer=POLY_cond $X=0.422 $Y=2.148
+ $X2=0.422 $Y2=1.845
r44 6 22 205.106 $w=1.5e-07 $l=4e-07 $layer=POLY_cond $X=0.55 $Y=0.6 $X2=0.55
+ $Y2=1
r45 1 8 47.3046 $w=3.23e-07 $l=3.5609e-07 $layer=POLY_cond $X=0.505 $Y=2.465
+ $X2=0.422 $Y2=2.148
r46 1 3 91.58 $w=1.5e-07 $l=2.85e-07 $layer=POLY_cond $X=0.505 $Y=2.465
+ $X2=0.505 $Y2=2.75
.ends

.subckt PM_SKY130_FD_SC_LS__DFRBP_1%CLK 3 7 8 11 13
c48 13 0 3.22254e-19 $X=1.962 $Y=1.41
r49 11 14 46.504 $w=3.55e-07 $l=1.65e-07 $layer=POLY_cond $X=1.962 $Y=1.61
+ $X2=1.962 $Y2=1.775
r50 11 13 52.1932 $w=3.55e-07 $l=2e-07 $layer=POLY_cond $X=1.962 $Y=1.61
+ $X2=1.962 $Y2=1.41
r51 11 12 145.28 $w=1.7e-07 $l=1.7e-07 $layer=licon1_POLY $count=1 $X=1.975
+ $Y=1.61 $X2=1.975 $Y2=1.61
r52 8 12 5.28571 $w=4.27e-07 $l=1.85e-07 $layer=LI1_cond $X=2.16 $Y=1.545
+ $X2=1.975 $Y2=1.545
r53 7 13 142.993 $w=1.5e-07 $l=4.45e-07 $layer=POLY_cond $X=1.97 $Y=0.965
+ $X2=1.97 $Y2=1.41
r54 3 14 351.245 $w=1.5e-07 $l=6.85e-07 $layer=POLY_cond $X=1.965 $Y=2.46
+ $X2=1.965 $Y2=1.775
.ends

.subckt PM_SKY130_FD_SC_LS__DFRBP_1%A_500_392# 1 2 7 8 11 12 15 18 19 21 22 23
+ 24 26 27 28 29 30 37 38 41 42 43 45 46 47 50 52 53 55 58 64 67 68
c205 68 0 1.81428e-19 $X=3.052 $Y=1.39
c206 58 0 9.20497e-20 $X=2.862 $Y=0.34
c207 52 0 1.08581e-19 $X=6.735 $Y=1.865
c208 47 0 1.02732e-19 $X=6.255 $Y=1.065
c209 43 0 1.61434e-19 $X=4.52 $Y=0.665
c210 37 0 1.94586e-20 $X=3.067 $Y=1.575
c211 28 0 3.00656e-19 $X=4.05 $Y=1.09
c212 7 0 2.61274e-19 $X=3.462 $Y=1.985
r213 67 68 11.1834 $w=1.83e-07 $l=1.85e-07 $layer=LI1_cond $X=3.052 $Y=1.205
+ $X2=3.052 $Y2=1.39
r214 65 69 29.2361 $w=3.05e-07 $l=1.85e-07 $layer=POLY_cond $X=3.385 $Y=1.82
+ $X2=3.385 $Y2=1.635
r215 64 65 145.28 $w=1.7e-07 $l=1.7e-07 $layer=licon1_POLY $count=1 $X=3.385
+ $Y=1.82 $X2=3.385 $Y2=1.82
r216 62 67 26.0963 $w=1.68e-07 $l=4e-07 $layer=LI1_cond $X=3.03 $Y=0.805
+ $X2=3.03 $Y2=1.205
r217 61 62 7.65311 $w=5.03e-07 $l=8.5e-08 $layer=LI1_cond $X=2.862 $Y=0.72
+ $X2=2.862 $Y2=0.805
r218 58 61 9.00019 $w=5.03e-07 $l=3.8e-07 $layer=LI1_cond $X=2.862 $Y=0.34
+ $X2=2.862 $Y2=0.72
r219 55 56 145.28 $w=1.7e-07 $l=1.7e-07 $layer=licon1_POLY $count=1 $X=7.205
+ $Y=2.03 $X2=7.205 $Y2=2.03
r220 53 55 13.4452 $w=3.28e-07 $l=3.85e-07 $layer=LI1_cond $X=6.82 $Y=2.03
+ $X2=7.205 $Y2=2.03
r221 52 53 7.76618 $w=3.3e-07 $l=2.03101e-07 $layer=LI1_cond $X=6.735 $Y=1.865
+ $X2=6.82 $Y2=2.03
r222 51 52 41.4278 $w=1.68e-07 $l=6.35e-07 $layer=LI1_cond $X=6.735 $Y=1.23
+ $X2=6.735 $Y2=1.865
r223 50 73 16.6118 $w=3.3e-07 $l=9.5e-08 $layer=POLY_cond $X=6.645 $Y=1.065
+ $X2=6.645 $Y2=1.16
r224 49 50 145.28 $w=1.7e-07 $l=1.7e-07 $layer=licon1_POLY $count=1 $X=6.645
+ $Y=1.065 $X2=6.645 $Y2=1.065
r225 47 49 13.6198 $w=3.28e-07 $l=3.9e-07 $layer=LI1_cond $X=6.255 $Y=1.065
+ $X2=6.645 $Y2=1.065
r226 46 51 7.76618 $w=3.3e-07 $l=2.03101e-07 $layer=LI1_cond $X=6.65 $Y=1.065
+ $X2=6.735 $Y2=1.23
r227 46 49 0.174613 $w=3.28e-07 $l=5e-09 $layer=LI1_cond $X=6.65 $Y=1.065
+ $X2=6.645 $Y2=1.065
r228 45 47 7.76618 $w=3.3e-07 $l=2.03101e-07 $layer=LI1_cond $X=6.17 $Y=0.9
+ $X2=6.255 $Y2=1.065
r229 44 45 9.7861 $w=1.68e-07 $l=1.5e-07 $layer=LI1_cond $X=6.17 $Y=0.75
+ $X2=6.17 $Y2=0.9
r230 42 44 6.81649 $w=1.7e-07 $l=1.20208e-07 $layer=LI1_cond $X=6.085 $Y=0.665
+ $X2=6.17 $Y2=0.75
r231 42 43 102.102 $w=1.68e-07 $l=1.565e-06 $layer=LI1_cond $X=6.085 $Y=0.665
+ $X2=4.52 $Y2=0.665
r232 41 43 6.81649 $w=1.7e-07 $l=1.20208e-07 $layer=LI1_cond $X=4.435 $Y=0.58
+ $X2=4.52 $Y2=0.665
r233 40 41 10.1123 $w=1.68e-07 $l=1.55e-07 $layer=LI1_cond $X=4.435 $Y=0.425
+ $X2=4.435 $Y2=0.58
r234 39 58 7.21919 $w=1.7e-07 $l=2.53e-07 $layer=LI1_cond $X=3.115 $Y=0.34
+ $X2=2.862 $Y2=0.34
r235 38 40 6.81649 $w=1.7e-07 $l=1.20208e-07 $layer=LI1_cond $X=4.35 $Y=0.34
+ $X2=4.435 $Y2=0.425
r236 38 39 80.5722 $w=1.68e-07 $l=1.235e-06 $layer=LI1_cond $X=4.35 $Y=0.34
+ $X2=3.115 $Y2=0.34
r237 37 64 11.05 $w=3.91e-07 $l=3.07124e-07 $layer=LI1_cond $X=3.067 $Y=1.575
+ $X2=3.207 $Y2=1.82
r238 37 68 11.0909 $w=1.83e-07 $l=1.85e-07 $layer=LI1_cond $X=3.067 $Y=1.575
+ $X2=3.067 $Y2=1.39
r239 30 64 7.23887 $w=3.91e-07 $l=3.91162e-07 $layer=LI1_cond $X=2.915 $Y=2.052
+ $X2=3.207 $Y2=1.82
r240 30 32 8.45125 $w=3.73e-07 $l=2.75e-07 $layer=LI1_cond $X=2.915 $Y=2.052
+ $X2=2.64 $Y2=2.052
r241 28 29 43.7534 $w=2.2e-07 $l=1.5e-07 $layer=POLY_cond $X=4.05 $Y=1.09
+ $X2=4.05 $Y2=1.24
r242 24 56 52.2586 $w=2.99e-07 $l=2.7157e-07 $layer=POLY_cond $X=7.25 $Y=2.28
+ $X2=7.205 $Y2=2.03
r243 24 26 91.58 $w=1.5e-07 $l=2.85e-07 $layer=POLY_cond $X=7.25 $Y=2.28
+ $X2=7.25 $Y2=2.565
r244 22 73 21.2229 $w=1.5e-07 $l=1.65e-07 $layer=POLY_cond $X=6.48 $Y=1.16
+ $X2=6.645 $Y2=1.16
r245 22 23 184.596 $w=1.5e-07 $l=3.6e-07 $layer=POLY_cond $X=6.48 $Y=1.16
+ $X2=6.12 $Y2=1.16
r246 19 23 26.9307 $w=1.5e-07 $l=1.06066e-07 $layer=POLY_cond $X=6.045 $Y=1.085
+ $X2=6.12 $Y2=1.16
r247 19 21 126.927 $w=1.5e-07 $l=3.95e-07 $layer=POLY_cond $X=6.045 $Y=1.085
+ $X2=6.045 $Y2=0.69
r248 18 28 91.58 $w=1.5e-07 $l=2.85e-07 $layer=POLY_cond $X=4.085 $Y=0.805
+ $X2=4.085 $Y2=1.09
r249 15 29 164.085 $w=1.5e-07 $l=3.2e-07 $layer=POLY_cond $X=4.015 $Y=1.56
+ $X2=4.015 $Y2=1.24
r250 13 69 19.3576 $w=1.5e-07 $l=1.65e-07 $layer=POLY_cond $X=3.55 $Y=1.635
+ $X2=3.385 $Y2=1.635
r251 12 15 26.9307 $w=1.5e-07 $l=1.06066e-07 $layer=POLY_cond $X=3.94 $Y=1.635
+ $X2=4.015 $Y2=1.56
r252 12 13 199.979 $w=1.5e-07 $l=3.9e-07 $layer=POLY_cond $X=3.94 $Y=1.635
+ $X2=3.55 $Y2=1.635
r253 11 27 101.22 $w=1.5e-07 $l=3.15e-07 $layer=POLY_cond $X=3.45 $Y=2.525
+ $X2=3.45 $Y2=2.21
r254 8 27 36.4084 $w=1.75e-07 $l=8.7e-08 $layer=POLY_cond $X=3.462 $Y=2.123
+ $X2=3.462 $Y2=2.21
r255 7 65 34.7586 $w=3.05e-07 $l=1.99825e-07 $layer=POLY_cond $X=3.462 $Y=1.985
+ $X2=3.385 $Y2=1.82
r256 7 8 55.1746 $w=1.75e-07 $l=1.38e-07 $layer=POLY_cond $X=3.462 $Y=1.985
+ $X2=3.462 $Y2=2.123
r257 2 32 600 $w=1.7e-07 $l=2.55588e-07 $layer=licon1_PDIFF $count=1 $X=2.5
+ $Y=1.96 $X2=2.64 $Y2=2.155
r258 1 61 182 $w=1.7e-07 $l=2.03101e-07 $layer=licon1_NDIFF $count=1 $X=2.625
+ $Y=0.595 $X2=2.775 $Y2=0.72
.ends

.subckt PM_SKY130_FD_SC_LS__DFRBP_1%A_841_401# 1 2 7 9 12 14 19 20 22 23 24 25
+ 26 27 30
c111 23 0 5.58686e-20 $X=4.63 $Y=1.005
c112 12 0 3.41044e-19 $X=4.475 $Y=0.805
c113 7 0 2.19701e-19 $X=4.295 $Y=2.24
r114 30 32 32.7294 $w=2.48e-07 $l=7.1e-07 $layer=LI1_cond $X=6.355 $Y=1.88
+ $X2=6.355 $Y2=2.59
r115 28 30 14.2903 $w=2.48e-07 $l=3.1e-07 $layer=LI1_cond $X=6.355 $Y=1.57
+ $X2=6.355 $Y2=1.88
r116 26 28 7.14316 $w=1.7e-07 $l=1.62019e-07 $layer=LI1_cond $X=6.23 $Y=1.485
+ $X2=6.355 $Y2=1.57
r117 26 27 20.5508 $w=1.68e-07 $l=3.15e-07 $layer=LI1_cond $X=6.23 $Y=1.485
+ $X2=5.915 $Y2=1.485
r118 25 27 6.81649 $w=1.7e-07 $l=1.20208e-07 $layer=LI1_cond $X=5.83 $Y=1.4
+ $X2=5.915 $Y2=1.485
r119 24 35 3.40825 $w=1.7e-07 $l=8.5e-08 $layer=LI1_cond $X=5.83 $Y=1.09
+ $X2=5.83 $Y2=1.005
r120 24 25 20.2246 $w=1.68e-07 $l=3.1e-07 $layer=LI1_cond $X=5.83 $Y=1.09
+ $X2=5.83 $Y2=1.4
r121 22 35 3.40825 $w=1.7e-07 $l=8.5e-08 $layer=LI1_cond $X=5.745 $Y=1.005
+ $X2=5.83 $Y2=1.005
r122 22 23 72.7433 $w=1.68e-07 $l=1.115e-06 $layer=LI1_cond $X=5.745 $Y=1.005
+ $X2=4.63 $Y2=1.005
r123 19 20 72.64 $w=1.7e-07 $l=3.4e-07 $layer=licon1_POLY $count=2 $X=4.465
+ $Y=1.65 $X2=4.465 $Y2=1.65
r124 17 23 7.36005 $w=1.7e-07 $l=1.77482e-07 $layer=LI1_cond $X=4.49 $Y=1.09
+ $X2=4.63 $Y2=1.005
r125 17 19 23.0489 $w=2.78e-07 $l=5.6e-07 $layer=LI1_cond $X=4.49 $Y=1.09
+ $X2=4.49 $Y2=1.65
r126 16 20 38.0424 $w=3.3e-07 $l=1.65e-07 $layer=POLY_cond $X=4.465 $Y=1.485
+ $X2=4.465 $Y2=1.65
r127 14 20 62.0758 $w=3.3e-07 $l=3.55e-07 $layer=POLY_cond $X=4.465 $Y=2.005
+ $X2=4.465 $Y2=1.65
r128 12 16 348.681 $w=1.5e-07 $l=6.8e-07 $layer=POLY_cond $X=4.475 $Y=0.805
+ $X2=4.475 $Y2=1.485
r129 7 14 33.7113 $w=3.36e-07 $l=3.08504e-07 $layer=POLY_cond $X=4.295 $Y=2.24
+ $X2=4.465 $Y2=2.005
r130 7 9 91.58 $w=1.5e-07 $l=2.85e-07 $layer=POLY_cond $X=4.295 $Y=2.24
+ $X2=4.295 $Y2=2.525
r131 2 32 400 $w=1.7e-07 $l=9.26971e-07 $layer=licon1_PDIFF $count=1 $X=6.165
+ $Y=1.735 $X2=6.315 $Y2=2.59
r132 2 30 400 $w=1.7e-07 $l=2.10357e-07 $layer=licon1_PDIFF $count=1 $X=6.165
+ $Y=1.735 $X2=6.315 $Y2=1.88
r133 1 35 182 $w=1.7e-07 $l=7.36834e-07 $layer=licon1_NDIFF $count=1 $X=5.53
+ $Y=0.37 $X2=5.75 $Y2=1.005
.ends

.subckt PM_SKY130_FD_SC_LS__DFRBP_1%RESET_B 4 6 8 9 11 12 13 17 19 20 22 25 27
+ 29 31 33 34 35 36 37 42 45 48 49 52 53 56 61
c212 53 0 4.15557e-20 $X=1.165 $Y=1.295
c213 52 0 1.03964e-19 $X=1.165 $Y=1.295
c214 42 0 6.85463e-20 $X=7.92 $Y=2.035
c215 34 0 1.81428e-19 $X=5.375 $Y=2.035
c216 12 0 4.00428e-20 $X=4.79 $Y=0.18
r217 60 61 145.28 $w=1.7e-07 $l=1.7e-07 $layer=licon1_POLY $count=1 $X=8.135
+ $Y=2 $X2=8.135 $Y2=2
r218 56 58 41.4566 $w=4.65e-07 $l=1.65e-07 $layer=POLY_cond $X=1.097 $Y=1.975
+ $X2=1.097 $Y2=2.14
r219 56 57 96.8533 $w=1.7e-07 $l=2.55e-07 $layer=licon1_POLY $count=1 $X=1.165
+ $Y=1.975 $X2=1.165 $Y2=1.975
r220 53 57 29.0245 $w=2.68e-07 $l=6.8e-07 $layer=LI1_cond $X=1.165 $Y=1.295
+ $X2=1.165 $Y2=1.975
r221 52 54 47.3569 $w=4.65e-07 $l=1.65e-07 $layer=POLY_cond $X=1.097 $Y=1.295
+ $X2=1.097 $Y2=1.13
r222 52 53 96.8533 $w=1.7e-07 $l=2.55e-07 $layer=licon1_POLY $count=1 $X=1.165
+ $Y=1.295 $X2=1.165 $Y2=1.295
r223 48 49 145.28 $w=1.7e-07 $l=1.7e-07 $layer=licon1_POLY $count=1 $X=5.395
+ $Y=1.99 $X2=5.395 $Y2=1.99
r224 45 57 9.3 $w=1.7e-07 $l=1.7e-07 $layer=mcon $count=1 $X=1.2 $Y=2.035
+ $X2=1.2 $Y2=2.035
r225 43 61 7.50834 $w=3.28e-07 $l=2.15e-07 $layer=LI1_cond $X=7.92 $Y=2
+ $X2=8.135 $Y2=2
r226 42 43 9.3 $w=1.7e-07 $l=1.7e-07 $layer=mcon $count=1 $X=7.92 $Y=2.035
+ $X2=7.92 $Y2=2.035
r227 39 49 9.3 $w=1.7e-07 $l=1.7e-07 $layer=mcon $count=1 $X=5.52 $Y=2.035
+ $X2=5.52 $Y2=2.035
r228 37 39 0.115467 $w=2.3e-07 $l=1.45e-07 $layer=MET1_cond $X=5.665 $Y=2.035
+ $X2=5.52 $Y2=2.035
r229 36 42 0.115467 $w=2.3e-07 $l=1.45e-07 $layer=MET1_cond $X=7.775 $Y=2.035
+ $X2=7.92 $Y2=2.035
r230 36 37 2.61138 $w=1.4e-07 $l=2.11e-06 $layer=MET1_cond $X=7.775 $Y=2.035
+ $X2=5.665 $Y2=2.035
r231 35 45 0.115467 $w=2.3e-07 $l=1.45e-07 $layer=MET1_cond $X=1.345 $Y=2.035
+ $X2=1.2 $Y2=2.035
r232 34 39 0.115467 $w=2.3e-07 $l=1.45e-07 $layer=MET1_cond $X=5.375 $Y=2.035
+ $X2=5.52 $Y2=2.035
r233 34 35 4.98761 $w=1.4e-07 $l=4.03e-06 $layer=MET1_cond $X=5.375 $Y=2.035
+ $X2=1.345 $Y2=2.035
r234 32 48 65.573 $w=3.3e-07 $l=3.75e-07 $layer=POLY_cond $X=5.02 $Y=1.99
+ $X2=5.395 $Y2=1.99
r235 32 33 5.03009 $w=3.3e-07 $l=1.08995e-07 $layer=POLY_cond $X=5.02 $Y=1.99
+ $X2=4.93 $Y2=2.032
r236 30 31 49.7366 $w=2e-07 $l=1.5e-07 $layer=POLY_cond $X=4.89 $Y=1.09 $X2=4.89
+ $Y2=1.24
r237 27 60 57.6553 $w=2.91e-07 $l=3.01662e-07 $layer=POLY_cond $X=8.18 $Y=2.28
+ $X2=8.135 $Y2=2
r238 27 29 91.58 $w=1.5e-07 $l=2.85e-07 $layer=POLY_cond $X=8.18 $Y=2.28
+ $X2=8.18 $Y2=2.565
r239 23 60 38.6072 $w=2.91e-07 $l=2.05122e-07 $layer=POLY_cond $X=8.045 $Y=1.835
+ $X2=8.135 $Y2=2
r240 23 25 643.521 $w=1.5e-07 $l=1.255e-06 $layer=POLY_cond $X=8.045 $Y=1.835
+ $X2=8.045 $Y2=0.58
r241 20 33 37.0704 $w=1.5e-07 $l=2.08e-07 $layer=POLY_cond $X=4.93 $Y=2.24
+ $X2=4.93 $Y2=2.032
r242 20 22 91.58 $w=1.5e-07 $l=2.85e-07 $layer=POLY_cond $X=4.93 $Y=2.24
+ $X2=4.93 $Y2=2.525
r243 19 33 37.0704 $w=1.5e-07 $l=2.14369e-07 $layer=POLY_cond $X=4.915 $Y=1.825
+ $X2=4.93 $Y2=2.032
r244 19 31 299.968 $w=1.5e-07 $l=5.85e-07 $layer=POLY_cond $X=4.915 $Y=1.825
+ $X2=4.915 $Y2=1.24
r245 17 30 146.138 $w=1.5e-07 $l=2.85e-07 $layer=POLY_cond $X=4.865 $Y=0.805
+ $X2=4.865 $Y2=1.09
r246 14 17 282.021 $w=1.5e-07 $l=5.5e-07 $layer=POLY_cond $X=4.865 $Y=0.255
+ $X2=4.865 $Y2=0.805
r247 12 14 26.9307 $w=1.5e-07 $l=1.06066e-07 $layer=POLY_cond $X=4.79 $Y=0.18
+ $X2=4.865 $Y2=0.255
r248 12 13 1935.69 $w=1.5e-07 $l=3.775e-06 $layer=POLY_cond $X=4.79 $Y=0.18
+ $X2=1.015 $Y2=0.18
r249 9 11 91.58 $w=1.5e-07 $l=2.85e-07 $layer=POLY_cond $X=0.955 $Y=2.465
+ $X2=0.955 $Y2=2.75
r250 8 9 36.0588 $w=1.8e-07 $l=9e-08 $layer=POLY_cond $X=0.955 $Y=2.375
+ $X2=0.955 $Y2=2.465
r251 8 58 91.3468 $w=1.8e-07 $l=2.35e-07 $layer=POLY_cond $X=0.955 $Y=2.375
+ $X2=0.955 $Y2=2.14
r252 6 56 8.0134 $w=4.65e-07 $l=6.7e-08 $layer=POLY_cond $X=1.097 $Y=1.908
+ $X2=1.097 $Y2=1.975
r253 5 52 8.0134 $w=4.65e-07 $l=6.7e-08 $layer=POLY_cond $X=1.097 $Y=1.362
+ $X2=1.097 $Y2=1.295
r254 5 6 65.3032 $w=4.65e-07 $l=5.46e-07 $layer=POLY_cond $X=1.097 $Y=1.362
+ $X2=1.097 $Y2=1.908
r255 4 54 271.766 $w=1.5e-07 $l=5.3e-07 $layer=POLY_cond $X=0.94 $Y=0.6 $X2=0.94
+ $Y2=1.13
r256 1 13 26.9307 $w=1.5e-07 $l=1.06066e-07 $layer=POLY_cond $X=0.94 $Y=0.255
+ $X2=1.015 $Y2=0.18
r257 1 4 176.904 $w=1.5e-07 $l=3.45e-07 $layer=POLY_cond $X=0.94 $Y=0.255
+ $X2=0.94 $Y2=0.6
.ends

.subckt PM_SKY130_FD_SC_LS__DFRBP_1%A_705_463# 1 2 3 12 14 16 18 19 25 28 32 34
+ 35 38 41 42
c128 38 0 1.55214e-19 $X=4.975 $Y=1.45
c129 35 0 1.25323e-19 $X=4.14 $Y=2.325
c130 32 0 1.09016e-19 $X=4.095 $Y=0.812
c131 28 0 1.98111e-19 $X=4.975 $Y=2.28
c132 19 0 7.95804e-20 $X=4.01 $Y=2.61
c133 14 0 2.11313e-19 $X=6 $Y=1.54
r134 42 44 6.65782 $w=3.39e-07 $l=1.85e-07 $layer=LI1_cond $X=4.975 $Y=2.48
+ $X2=5.16 $Y2=2.48
r135 41 47 15.7375 $w=3.3e-07 $l=9e-08 $layer=POLY_cond $X=5.395 $Y=1.45
+ $X2=5.395 $Y2=1.54
r136 41 46 46.2115 $w=3.3e-07 $l=1.65e-07 $layer=POLY_cond $X=5.395 $Y=1.45
+ $X2=5.395 $Y2=1.285
r137 40 41 145.28 $w=1.7e-07 $l=1.7e-07 $layer=licon1_POLY $count=1 $X=5.395
+ $Y=1.45 $X2=5.395 $Y2=1.45
r138 38 40 20.6613 $w=2.48e-07 $l=4.2e-07 $layer=LI1_cond $X=4.975 $Y=1.45
+ $X2=5.395 $Y2=1.45
r139 34 36 8.86495 $w=2.58e-07 $l=2e-07 $layer=LI1_cond $X=4.14 $Y=2.41 $X2=4.14
+ $Y2=2.61
r140 34 35 5.14764 $w=2.58e-07 $l=8.5e-08 $layer=LI1_cond $X=4.14 $Y=2.41
+ $X2=4.14 $Y2=2.325
r141 30 32 5.96091 $w=4.33e-07 $l=2.25e-07 $layer=LI1_cond $X=3.87 $Y=0.812
+ $X2=4.095 $Y2=0.812
r142 28 42 4.78362 $w=1.7e-07 $l=2e-07 $layer=LI1_cond $X=4.975 $Y=2.28
+ $X2=4.975 $Y2=2.48
r143 27 38 2.94836 $w=1.7e-07 $l=1.65e-07 $layer=LI1_cond $X=4.975 $Y=1.615
+ $X2=4.975 $Y2=1.45
r144 27 28 43.385 $w=1.68e-07 $l=6.65e-07 $layer=LI1_cond $X=4.975 $Y=1.615
+ $X2=4.975 $Y2=2.28
r145 26 34 3.22376 $w=1.7e-07 $l=1.3e-07 $layer=LI1_cond $X=4.27 $Y=2.41
+ $X2=4.14 $Y2=2.41
r146 25 42 6.08812 $w=3.39e-07 $l=1.14782e-07 $layer=LI1_cond $X=4.89 $Y=2.41
+ $X2=4.975 $Y2=2.48
r147 25 26 40.4492 $w=1.68e-07 $l=6.2e-07 $layer=LI1_cond $X=4.89 $Y=2.41
+ $X2=4.27 $Y2=2.41
r148 23 32 6.29128 $w=1.7e-07 $l=2.18e-07 $layer=LI1_cond $X=4.095 $Y=1.03
+ $X2=4.095 $Y2=0.812
r149 23 35 84.4866 $w=1.68e-07 $l=1.295e-06 $layer=LI1_cond $X=4.095 $Y=1.03
+ $X2=4.095 $Y2=2.325
r150 19 36 3.22376 $w=1.7e-07 $l=1.3e-07 $layer=LI1_cond $X=4.01 $Y=2.61
+ $X2=4.14 $Y2=2.61
r151 19 21 21.5294 $w=1.68e-07 $l=3.3e-07 $layer=LI1_cond $X=4.01 $Y=2.61
+ $X2=3.68 $Y2=2.61
r152 16 18 184.767 $w=1.5e-07 $l=5.75e-07 $layer=POLY_cond $X=6.09 $Y=1.66
+ $X2=6.09 $Y2=2.235
r153 15 47 21.2229 $w=1.5e-07 $l=1.65e-07 $layer=POLY_cond $X=5.56 $Y=1.54
+ $X2=5.395 $Y2=1.54
r154 14 16 26.9307 $w=1.5e-07 $l=1.58745e-07 $layer=POLY_cond $X=6 $Y=1.54
+ $X2=6.09 $Y2=1.66
r155 14 15 225.617 $w=1.5e-07 $l=4.4e-07 $layer=POLY_cond $X=6 $Y=1.54 $X2=5.56
+ $Y2=1.54
r156 12 46 305.096 $w=1.5e-07 $l=5.95e-07 $layer=POLY_cond $X=5.455 $Y=0.69
+ $X2=5.455 $Y2=1.285
r157 3 44 600 $w=1.7e-07 $l=2.66458e-07 $layer=licon1_PDIFF $count=1 $X=5.005
+ $Y=2.315 $X2=5.16 $Y2=2.515
r158 2 21 600 $w=1.7e-07 $l=3.64349e-07 $layer=licon1_PDIFF $count=1 $X=3.525
+ $Y=2.315 $X2=3.68 $Y2=2.61
r159 1 30 182 $w=1.7e-07 $l=3.02283e-07 $layer=licon1_NDIFF $count=1 $X=3.66
+ $Y=0.595 $X2=3.87 $Y2=0.81
.ends

.subckt PM_SKY130_FD_SC_LS__DFRBP_1%A_319_392# 1 2 9 11 13 15 16 17 18 19 22 24
+ 25 26 28 29 31 32 36 37 38 41 43 45 46 49 54 55
c192 54 0 1.03964e-19 $X=1.92 $Y=0.867
c193 49 0 2.58586e-19 $X=2.61 $Y=1.49
c194 22 0 1.58258e-20 $X=3.585 $Y=0.805
c195 19 0 1.41973e-19 $X=3.145 $Y=1.275
c196 18 0 1.25323e-19 $X=3.51 $Y=1.275
c197 15 0 7.95804e-20 $X=2.935 $Y=3.075
c198 11 0 1.94586e-20 $X=2.55 $Y=1.41
c199 9 0 4.7274e-20 $X=2.425 $Y=2.46
r200 60 64 39.3878 $w=3.61e-07 $l=2.95e-07 $layer=POLY_cond $X=2.64 $Y=1.487
+ $X2=2.935 $Y2=1.487
r201 59 60 145.28 $w=1.7e-07 $l=1.7e-07 $layer=licon1_POLY $count=1 $X=2.64
+ $Y=1.61 $X2=2.64 $Y2=1.61
r202 55 57 6.52312 $w=3.46e-07 $l=1.85e-07 $layer=LI1_cond $X=1.555 $Y=2.057
+ $X2=1.74 $Y2=2.057
r203 53 54 9.79992 $w=5.43e-07 $l=1.65e-07 $layer=LI1_cond $X=1.755 $Y=0.867
+ $X2=1.92 $Y2=0.867
r204 50 53 4.38928 $w=5.43e-07 $l=2e-07 $layer=LI1_cond $X=1.555 $Y=0.867
+ $X2=1.755 $Y2=0.867
r205 49 59 4.33136 $w=3.38e-07 $l=1.27279e-07 $layer=LI1_cond $X=2.61 $Y=1.49
+ $X2=2.625 $Y2=1.61
r206 48 49 12.2229 $w=3.28e-07 $l=3.5e-07 $layer=LI1_cond $X=2.61 $Y=1.14
+ $X2=2.61 $Y2=1.49
r207 46 48 15.37 $w=1.26e-07 $l=2.03101e-07 $layer=LI1_cond $X=2.445 $Y=1.055
+ $X2=2.61 $Y2=1.14
r208 46 54 34.2513 $w=1.68e-07 $l=5.25e-07 $layer=LI1_cond $X=2.445 $Y=1.055
+ $X2=1.92 $Y2=1.055
r209 45 55 4.90539 $w=1.7e-07 $l=1.92e-07 $layer=LI1_cond $X=1.555 $Y=1.865
+ $X2=1.555 $Y2=2.057
r210 44 50 7.70116 $w=1.7e-07 $l=2.73e-07 $layer=LI1_cond $X=1.555 $Y=1.14
+ $X2=1.555 $Y2=0.867
r211 44 45 47.2995 $w=1.68e-07 $l=7.25e-07 $layer=LI1_cond $X=1.555 $Y=1.14
+ $X2=1.555 $Y2=1.865
r212 39 41 458.926 $w=1.5e-07 $l=8.95e-07 $layer=POLY_cond $X=7.095 $Y=1.475
+ $X2=7.095 $Y2=0.58
r213 37 39 26.9307 $w=1.5e-07 $l=1.06066e-07 $layer=POLY_cond $X=7.02 $Y=1.55
+ $X2=7.095 $Y2=1.475
r214 37 38 199.979 $w=1.5e-07 $l=3.9e-07 $layer=POLY_cond $X=7.02 $Y=1.55
+ $X2=6.63 $Y2=1.55
r215 34 36 294.84 $w=1.5e-07 $l=5.75e-07 $layer=POLY_cond $X=6.54 $Y=2.81
+ $X2=6.54 $Y2=2.235
r216 33 38 26.9307 $w=1.5e-07 $l=1.48324e-07 $layer=POLY_cond $X=6.54 $Y=1.66
+ $X2=6.63 $Y2=1.55
r217 33 36 294.84 $w=1.5e-07 $l=5.75e-07 $layer=POLY_cond $X=6.54 $Y=1.66
+ $X2=6.54 $Y2=2.235
r218 31 34 36.0588 $w=1.8e-07 $l=9e-08 $layer=POLY_cond $X=6.54 $Y=2.9 $X2=6.54
+ $Y2=2.81
r219 31 32 68.0242 $w=1.8e-07 $l=1.75e-07 $layer=POLY_cond $X=6.54 $Y=2.9
+ $X2=6.54 $Y2=3.075
r220 30 43 23.6879 $w=1.5e-07 $l=9e-08 $layer=POLY_cond $X=3.995 $Y=3.15
+ $X2=3.905 $Y2=3.15
r221 29 32 27.2212 $w=1.5e-07 $l=1.21861e-07 $layer=POLY_cond $X=6.45 $Y=3.15
+ $X2=6.54 $Y2=3.075
r222 29 30 1258.84 $w=1.5e-07 $l=2.455e-06 $layer=POLY_cond $X=6.45 $Y=3.15
+ $X2=3.995 $Y2=3.15
r223 26 28 91.58 $w=1.5e-07 $l=2.85e-07 $layer=POLY_cond $X=3.905 $Y=2.81
+ $X2=3.905 $Y2=2.525
r224 25 43 2.7459 $w=1.8e-07 $l=7.5e-08 $layer=POLY_cond $X=3.905 $Y=3.075
+ $X2=3.905 $Y2=3.15
r225 24 26 36.0588 $w=1.8e-07 $l=9e-08 $layer=POLY_cond $X=3.905 $Y=2.9
+ $X2=3.905 $Y2=2.81
r226 24 25 68.0242 $w=1.8e-07 $l=1.75e-07 $layer=POLY_cond $X=3.905 $Y=2.9
+ $X2=3.905 $Y2=3.075
r227 20 22 202.543 $w=1.5e-07 $l=3.95e-07 $layer=POLY_cond $X=3.585 $Y=1.2
+ $X2=3.585 $Y2=0.805
r228 19 64 44.9323 $w=3.61e-07 $l=2.99105e-07 $layer=POLY_cond $X=3.145 $Y=1.275
+ $X2=2.935 $Y2=1.487
r229 18 20 26.9307 $w=1.5e-07 $l=1.06066e-07 $layer=POLY_cond $X=3.51 $Y=1.275
+ $X2=3.585 $Y2=1.2
r230 18 19 187.16 $w=1.5e-07 $l=3.65e-07 $layer=POLY_cond $X=3.51 $Y=1.275
+ $X2=3.145 $Y2=1.275
r231 16 43 23.6879 $w=1.5e-07 $l=9e-08 $layer=POLY_cond $X=3.815 $Y=3.15
+ $X2=3.905 $Y2=3.15
r232 16 17 412.777 $w=1.5e-07 $l=8.05e-07 $layer=POLY_cond $X=3.815 $Y=3.15
+ $X2=3.01 $Y2=3.15
r233 15 17 26.9307 $w=1.5e-07 $l=1.06066e-07 $layer=POLY_cond $X=2.935 $Y=3.075
+ $X2=3.01 $Y2=3.15
r234 14 64 23.3725 $w=1.5e-07 $l=2.88e-07 $layer=POLY_cond $X=2.935 $Y=1.775
+ $X2=2.935 $Y2=1.487
r235 14 15 666.596 $w=1.5e-07 $l=1.3e-06 $layer=POLY_cond $X=2.935 $Y=1.775
+ $X2=2.935 $Y2=3.075
r236 11 60 12.0166 $w=3.61e-07 $l=9e-08 $layer=POLY_cond $X=2.55 $Y=1.487
+ $X2=2.64 $Y2=1.487
r237 11 61 16.6898 $w=3.61e-07 $l=1.25e-07 $layer=POLY_cond $X=2.55 $Y=1.487
+ $X2=2.425 $Y2=1.487
r238 11 13 142.993 $w=1.5e-07 $l=4.45e-07 $layer=POLY_cond $X=2.55 $Y=1.41
+ $X2=2.55 $Y2=0.965
r239 7 61 23.3725 $w=1.5e-07 $l=2.88e-07 $layer=POLY_cond $X=2.425 $Y=1.775
+ $X2=2.425 $Y2=1.487
r240 7 9 351.245 $w=1.5e-07 $l=6.85e-07 $layer=POLY_cond $X=2.425 $Y=1.775
+ $X2=2.425 $Y2=2.46
r241 2 57 600 $w=1.7e-07 $l=1.97864e-07 $layer=licon1_PDIFF $count=1 $X=1.595
+ $Y=1.96 $X2=1.74 $Y2=2.085
r242 1 53 182 $w=1.7e-07 $l=3.85746e-07 $layer=licon1_NDIFF $count=1 $X=1.61
+ $Y=0.595 $X2=1.755 $Y2=0.915
.ends

.subckt PM_SKY130_FD_SC_LS__DFRBP_1%A_1482_48# 1 2 7 9 11 12 14 15 18 21 24 25
+ 38 40 44
c95 38 0 6.85463e-20 $X=8.885 $Y=1.85
c96 15 0 1.98491e-19 $X=8.485 $Y=0.985
r97 36 38 21.5294 $w=1.68e-07 $l=3.3e-07 $layer=LI1_cond $X=8.555 $Y=1.85
+ $X2=8.885 $Y2=1.85
r98 29 44 13.1146 $w=3.3e-07 $l=7.5e-08 $layer=POLY_cond $X=7.595 $Y=1.065
+ $X2=7.67 $Y2=1.065
r99 29 41 19.2347 $w=3.3e-07 $l=1.1e-07 $layer=POLY_cond $X=7.595 $Y=1.065
+ $X2=7.485 $Y2=1.065
r100 28 29 145.28 $w=1.7e-07 $l=1.7e-07 $layer=licon1_POLY $count=1 $X=7.595
+ $Y=1.065 $X2=7.595 $Y2=1.065
r101 25 28 2.7938 $w=3.28e-07 $l=8e-08 $layer=LI1_cond $X=7.595 $Y=0.985
+ $X2=7.595 $Y2=1.065
r102 24 38 0.716491 $w=1.7e-07 $l=8.5e-08 $layer=LI1_cond $X=8.885 $Y=1.765
+ $X2=8.885 $Y2=1.85
r103 23 40 2.90768 $w=3.27e-07 $l=1.95944e-07 $layer=LI1_cond $X=8.885 $Y=1.07
+ $X2=8.727 $Y2=0.985
r104 23 24 45.3422 $w=1.68e-07 $l=6.95e-07 $layer=LI1_cond $X=8.885 $Y=1.07
+ $X2=8.885 $Y2=1.765
r105 19 40 2.90768 $w=3.27e-07 $l=8.5e-08 $layer=LI1_cond $X=8.727 $Y=0.9
+ $X2=8.727 $Y2=0.985
r106 19 21 7.89165 $w=4.83e-07 $l=3.2e-07 $layer=LI1_cond $X=8.727 $Y=0.9
+ $X2=8.727 $Y2=0.58
r107 18 32 4.37637 $w=3.93e-07 $l=1.5e-07 $layer=LI1_cond $X=8.555 $Y=2.532
+ $X2=8.405 $Y2=2.532
r108 17 36 0.716491 $w=1.7e-07 $l=8.5e-08 $layer=LI1_cond $X=8.555 $Y=1.935
+ $X2=8.555 $Y2=1.85
r109 17 18 26.0963 $w=1.68e-07 $l=4e-07 $layer=LI1_cond $X=8.555 $Y=1.935
+ $X2=8.555 $Y2=2.335
r110 16 25 4.62375 $w=1.7e-07 $l=1.65e-07 $layer=LI1_cond $X=7.76 $Y=0.985
+ $X2=7.595 $Y2=0.985
r111 15 40 3.78066 $w=1.7e-07 $l=2.42e-07 $layer=LI1_cond $X=8.485 $Y=0.985
+ $X2=8.727 $Y2=0.985
r112 15 16 47.2995 $w=1.68e-07 $l=7.25e-07 $layer=LI1_cond $X=8.485 $Y=0.985
+ $X2=7.76 $Y2=0.985
r113 12 14 91.58 $w=1.5e-07 $l=2.85e-07 $layer=POLY_cond $X=7.67 $Y=2.28
+ $X2=7.67 $Y2=2.565
r114 11 12 36.0588 $w=1.8e-07 $l=9e-08 $layer=POLY_cond $X=7.67 $Y=2.19 $X2=7.67
+ $Y2=2.28
r115 10 44 16.9318 $w=1.8e-07 $l=1.65e-07 $layer=POLY_cond $X=7.67 $Y=1.23
+ $X2=7.67 $Y2=1.065
r116 10 11 373.161 $w=1.8e-07 $l=9.6e-07 $layer=POLY_cond $X=7.67 $Y=1.23
+ $X2=7.67 $Y2=2.19
r117 7 41 21.2229 $w=1.5e-07 $l=1.65e-07 $layer=POLY_cond $X=7.485 $Y=0.9
+ $X2=7.485 $Y2=1.065
r118 7 9 102.827 $w=1.5e-07 $l=3.2e-07 $layer=POLY_cond $X=7.485 $Y=0.9
+ $X2=7.485 $Y2=0.58
r119 2 32 600 $w=1.7e-07 $l=2.74955e-07 $layer=licon1_PDIFF $count=1 $X=8.255
+ $Y=2.355 $X2=8.405 $Y2=2.565
r120 1 21 182 $w=1.7e-07 $l=2.71109e-07 $layer=licon1_NDIFF $count=1 $X=8.51
+ $Y=0.37 $X2=8.65 $Y2=0.58
.ends

.subckt PM_SKY130_FD_SC_LS__DFRBP_1%A_1224_74# 1 2 9 12 13 15 16 17 18 20 23 25
+ 28 29 31 34 37 38 42 47 48 49 51 52 54 56
c164 51 0 1.04385e-19 $X=7.58 $Y=2.365
c165 29 0 1.79977e-19 $X=10.5 $Y=2.045
c166 17 0 1.98491e-19 $X=8.72 $Y=1.43
r167 57 64 23.6063 $w=3.3e-07 $l=1.35e-07 $layer=POLY_cond $X=8.495 $Y=1.43
+ $X2=8.63 $Y2=1.43
r168 57 61 10.4917 $w=3.3e-07 $l=6e-08 $layer=POLY_cond $X=8.495 $Y=1.43
+ $X2=8.435 $Y2=1.43
r169 56 59 3.07318 $w=2.98e-07 $l=8e-08 $layer=LI1_cond $X=8.48 $Y=1.43 $X2=8.48
+ $Y2=1.51
r170 56 57 145.28 $w=1.7e-07 $l=1.7e-07 $layer=licon1_POLY $count=1 $X=8.495
+ $Y=1.43 $X2=8.495 $Y2=1.43
r171 53 54 5.16603 $w=1.7e-07 $l=8.5e-08 $layer=LI1_cond $X=7.665 $Y=1.51
+ $X2=7.58 $Y2=1.51
r172 52 59 4.061 $w=1.7e-07 $l=1.5e-07 $layer=LI1_cond $X=8.33 $Y=1.51 $X2=8.48
+ $Y2=1.51
r173 52 53 43.385 $w=1.68e-07 $l=6.65e-07 $layer=LI1_cond $X=8.33 $Y=1.51
+ $X2=7.665 $Y2=1.51
r174 50 54 1.34256 $w=1.7e-07 $l=8.5e-08 $layer=LI1_cond $X=7.58 $Y=1.595
+ $X2=7.58 $Y2=1.51
r175 50 51 50.2353 $w=1.68e-07 $l=7.7e-07 $layer=LI1_cond $X=7.58 $Y=1.595
+ $X2=7.58 $Y2=2.365
r176 48 54 5.16603 $w=1.7e-07 $l=8.5e-08 $layer=LI1_cond $X=7.495 $Y=1.51
+ $X2=7.58 $Y2=1.51
r177 48 49 21.8556 $w=1.68e-07 $l=3.35e-07 $layer=LI1_cond $X=7.495 $Y=1.51
+ $X2=7.16 $Y2=1.51
r178 47 49 6.81649 $w=1.7e-07 $l=1.20208e-07 $layer=LI1_cond $X=7.075 $Y=1.425
+ $X2=7.16 $Y2=1.51
r179 46 47 45.3422 $w=1.68e-07 $l=6.95e-07 $layer=LI1_cond $X=7.075 $Y=0.73
+ $X2=7.075 $Y2=1.425
r180 42 51 7.76618 $w=3.3e-07 $l=2.03101e-07 $layer=LI1_cond $X=7.495 $Y=2.53
+ $X2=7.58 $Y2=2.365
r181 42 44 21.1281 $w=3.28e-07 $l=6.05e-07 $layer=LI1_cond $X=7.495 $Y=2.53
+ $X2=6.89 $Y2=2.53
r182 38 46 7.76618 $w=3.3e-07 $l=2.03101e-07 $layer=LI1_cond $X=6.99 $Y=0.565
+ $X2=7.075 $Y2=0.73
r183 38 40 10.3021 $w=3.28e-07 $l=2.95e-07 $layer=LI1_cond $X=6.99 $Y=0.565
+ $X2=6.695 $Y2=0.565
r184 32 37 34.7346 $w=1.65e-07 $l=1.72337e-07 $layer=POLY_cond $X=10.515
+ $Y=1.265 $X2=10.5 $Y2=1.43
r185 32 34 317.915 $w=1.5e-07 $l=6.2e-07 $layer=POLY_cond $X=10.515 $Y=1.265
+ $X2=10.515 $Y2=0.645
r186 29 31 159.06 $w=1.5e-07 $l=4.95e-07 $layer=POLY_cond $X=10.5 $Y=2.045
+ $X2=10.5 $Y2=2.54
r187 28 29 36.0588 $w=1.8e-07 $l=9e-08 $layer=POLY_cond $X=10.5 $Y=1.955
+ $X2=10.5 $Y2=2.045
r188 27 37 34.7346 $w=1.65e-07 $l=1.65e-07 $layer=POLY_cond $X=10.5 $Y=1.595
+ $X2=10.5 $Y2=1.43
r189 27 28 139.935 $w=1.8e-07 $l=3.6e-07 $layer=POLY_cond $X=10.5 $Y=1.595
+ $X2=10.5 $Y2=1.955
r190 26 36 5.16599 $w=3.3e-07 $l=2.3e-07 $layer=POLY_cond $X=9.515 $Y=1.43
+ $X2=9.285 $Y2=1.43
r191 25 37 3.90195 $w=3.3e-07 $l=9e-08 $layer=POLY_cond $X=10.41 $Y=1.43
+ $X2=10.5 $Y2=1.43
r192 25 26 156.501 $w=3.3e-07 $l=8.95e-07 $layer=POLY_cond $X=10.41 $Y=1.43
+ $X2=9.515 $Y2=1.43
r193 21 36 38.9663 $w=3.64e-07 $l=2.29783e-07 $layer=POLY_cond $X=9.44 $Y=1.265
+ $X2=9.285 $Y2=1.43
r194 21 23 269.202 $w=1.5e-07 $l=5.25e-07 $layer=POLY_cond $X=9.44 $Y=1.265
+ $X2=9.44 $Y2=0.74
r195 18 36 61.4773 $w=3.64e-07 $l=3.98905e-07 $layer=POLY_cond $X=9.145 $Y=1.765
+ $X2=9.285 $Y2=1.43
r196 18 20 204.047 $w=1.5e-07 $l=6.35e-07 $layer=POLY_cond $X=9.145 $Y=1.765
+ $X2=9.145 $Y2=2.4
r197 17 64 15.7375 $w=3.3e-07 $l=9e-08 $layer=POLY_cond $X=8.72 $Y=1.43 $X2=8.63
+ $Y2=1.43
r198 16 36 5.16599 $w=3.3e-07 $l=2.3e-07 $layer=POLY_cond $X=9.055 $Y=1.43
+ $X2=9.285 $Y2=1.43
r199 16 17 58.5785 $w=3.3e-07 $l=3.35e-07 $layer=POLY_cond $X=9.055 $Y=1.43
+ $X2=8.72 $Y2=1.43
r200 13 15 91.58 $w=1.5e-07 $l=2.85e-07 $layer=POLY_cond $X=8.63 $Y=2.28
+ $X2=8.63 $Y2=2.565
r201 12 13 36.0588 $w=1.8e-07 $l=9e-08 $layer=POLY_cond $X=8.63 $Y=2.19 $X2=8.63
+ $Y2=2.28
r202 11 64 16.9318 $w=1.8e-07 $l=1.65e-07 $layer=POLY_cond $X=8.63 $Y=1.595
+ $X2=8.63 $Y2=1.43
r203 11 12 231.282 $w=1.8e-07 $l=5.95e-07 $layer=POLY_cond $X=8.63 $Y=1.595
+ $X2=8.63 $Y2=2.19
r204 7 61 21.2229 $w=1.5e-07 $l=1.65e-07 $layer=POLY_cond $X=8.435 $Y=1.265
+ $X2=8.435 $Y2=1.43
r205 7 9 351.245 $w=1.5e-07 $l=6.85e-07 $layer=POLY_cond $X=8.435 $Y=1.265
+ $X2=8.435 $Y2=0.58
r206 2 44 600 $w=1.7e-07 $l=9.22307e-07 $layer=licon1_PDIFF $count=1 $X=6.615
+ $Y=1.735 $X2=6.89 $Y2=2.53
r207 1 40 182 $w=1.7e-07 $l=6.65395e-07 $layer=licon1_NDIFF $count=1 $X=6.12
+ $Y=0.37 $X2=6.695 $Y2=0.565
.ends

.subckt PM_SKY130_FD_SC_LS__DFRBP_1%A_2026_424# 1 2 9 11 13 16 20 24 27
r50 24 25 145.28 $w=1.7e-07 $l=1.7e-07 $layer=licon1_POLY $count=1 $X=10.965
+ $Y=1.465 $X2=10.965 $Y2=1.465
r51 22 27 0.364692 $w=3.3e-07 $l=1.25e-07 $layer=LI1_cond $X=10.44 $Y=1.465
+ $X2=10.315 $Y2=1.465
r52 22 24 18.3343 $w=3.28e-07 $l=5.25e-07 $layer=LI1_cond $X=10.44 $Y=1.465
+ $X2=10.965 $Y2=1.465
r53 18 27 6.46576 $w=2.5e-07 $l=1.65e-07 $layer=LI1_cond $X=10.315 $Y=1.63
+ $X2=10.315 $Y2=1.465
r54 18 20 29.5025 $w=2.48e-07 $l=6.4e-07 $layer=LI1_cond $X=10.315 $Y=1.63
+ $X2=10.315 $Y2=2.27
r55 14 27 6.46576 $w=2.5e-07 $l=1.65e-07 $layer=LI1_cond $X=10.315 $Y=1.3
+ $X2=10.315 $Y2=1.465
r56 14 16 30.4245 $w=2.48e-07 $l=6.6e-07 $layer=LI1_cond $X=10.315 $Y=1.3
+ $X2=10.315 $Y2=0.64
r57 11 25 61.4066 $w=2.86e-07 $l=3.24037e-07 $layer=POLY_cond $X=11.015 $Y=1.765
+ $X2=10.965 $Y2=1.465
r58 11 13 204.047 $w=1.5e-07 $l=6.35e-07 $layer=POLY_cond $X=11.015 $Y=1.765
+ $X2=11.015 $Y2=2.4
r59 7 25 38.6549 $w=2.86e-07 $l=1.88348e-07 $layer=POLY_cond $X=11.015 $Y=1.3
+ $X2=10.965 $Y2=1.465
r60 7 9 287.149 $w=1.5e-07 $l=5.6e-07 $layer=POLY_cond $X=11.015 $Y=1.3
+ $X2=11.015 $Y2=0.74
r61 2 20 300 $w=1.7e-07 $l=2.10357e-07 $layer=licon1_PDIFF $count=2 $X=10.13
+ $Y=2.12 $X2=10.275 $Y2=2.27
r62 1 16 182 $w=1.7e-07 $l=3.34739e-07 $layer=licon1_NDIFF $count=1 $X=10.155
+ $Y=0.37 $X2=10.3 $Y2=0.64
.ends

.subckt PM_SKY130_FD_SC_LS__DFRBP_1%VPWR 1 2 3 4 5 6 7 8 25 27 31 35 39 43 49 51
+ 55 59 63 65 70 75 83 88 93 103 104 110 113 116 119 122 125 128
r155 128 129 9.3 $w=1.7e-07 $l=1.7e-07 $layer=mcon $count=1 $X=10.8 $Y=3.33
+ $X2=10.8 $Y2=3.33
r156 125 126 4.65 $w=1.7e-07 $l=3.4e-07 $layer=mcon $count=2 $X=8.88 $Y=3.33
+ $X2=8.88 $Y2=3.33
r157 123 126 0.267585 $w=4.9e-07 $l=9.6e-07 $layer=MET1_cond $X=7.92 $Y=3.33
+ $X2=8.88 $Y2=3.33
r158 122 123 9.3 $w=1.7e-07 $l=1.7e-07 $layer=mcon $count=1 $X=7.92 $Y=3.33
+ $X2=7.92 $Y2=3.33
r159 119 120 4.65 $w=1.7e-07 $l=3.4e-07 $layer=mcon $count=2 $X=6 $Y=3.33 $X2=6
+ $Y2=3.33