* File: sky130_fd_sc_ls__sdfrbp_1.pex.spice
* Created: Wed Sep  2 11:26:54 2020
* Program "Calibre xRC"
* Version "v2018.4_34.26"
* Nominal Temperature: 27C
* Circuit Temperature: 27C
* 
.subckt PM_SKY130_FD_SC_LS__SDFRBP_1%A_27_74# 1 2 9 11 13 16 19 22 23 25 27 32
+ 34
c77 34 0 4.33637e-20 $X=2.5 $Y=1.995
c78 25 0 1.73275e-20 $X=2.365 $Y=2.135
r79 34 37 4.88915 $w=3.28e-07 $l=1.4e-07 $layer=LI1_cond $X=2.53 $Y=1.995
+ $X2=2.53 $Y2=2.135
r80 34 35 145.28 $w=1.7e-07 $l=1.7e-07 $layer=licon1_POLY $count=1 $X=2.5
+ $Y=1.995 $X2=2.5 $Y2=1.995
r81 31 32 12.4206 $w=9.23e-07 $l=1.65e-07 $layer=LI1_cond $X=0.89 $Y=2.512
+ $X2=1.055 $Y2=2.512
r82 25 37 4.62375 $w=1.7e-07 $l=1.65e-07 $layer=LI1_cond $X=2.365 $Y=2.135
+ $X2=2.53 $Y2=2.135
r83 25 32 85.4652 $w=1.68e-07 $l=1.31e-06 $layer=LI1_cond $X=2.365 $Y=2.135
+ $X2=1.055 $Y2=2.135
r84 22 23 145.28 $w=1.7e-07 $l=1.7e-07 $layer=licon1_POLY $count=1 $X=1.23
+ $Y=1.145 $X2=1.23 $Y2=1.145
r85 20 27 0.221902 $w=3.3e-07 $l=1.25e-07 $layer=LI1_cond $X=0.365 $Y=1.145
+ $X2=0.24 $Y2=1.145
r86 20 22 30.208 $w=3.28e-07 $l=8.65e-07 $layer=LI1_cond $X=0.365 $Y=1.145
+ $X2=1.23 $Y2=1.145
r87 19 31 9.10054 $w=9.23e-07 $l=6.9e-07 $layer=LI1_cond $X=0.2 $Y=2.512
+ $X2=0.89 $Y2=2.512
r88 18 27 7.38875 $w=2.1e-07 $l=1.83916e-07 $layer=LI1_cond $X=0.2 $Y=1.31
+ $X2=0.24 $Y2=1.145
r89 18 19 48.2781 $w=1.68e-07 $l=7.4e-07 $layer=LI1_cond $X=0.2 $Y=1.31 $X2=0.2
+ $Y2=2.05
r90 14 27 7.38875 $w=2.1e-07 $l=1.65e-07 $layer=LI1_cond $X=0.24 $Y=0.98
+ $X2=0.24 $Y2=1.145
r91 14 16 18.4391 $w=2.48e-07 $l=4e-07 $layer=LI1_cond $X=0.24 $Y=0.98 $X2=0.24
+ $Y2=0.58
r92 11 35 52.2586 $w=2.99e-07 $l=2.57391e-07 $layer=POLY_cond $X=2.485 $Y=2.245
+ $X2=2.5 $Y2=1.995
r93 11 13 126.927 $w=1.5e-07 $l=3.95e-07 $layer=POLY_cond $X=2.485 $Y=2.245
+ $X2=2.485 $Y2=2.64
r94 7 23 45.5222 $w=2.7e-07 $l=3.27261e-07 $layer=POLY_cond $X=1.485 $Y=0.98
+ $X2=1.23 $Y2=1.145
r95 7 9 187.16 $w=1.5e-07 $l=3.65e-07 $layer=POLY_cond $X=1.485 $Y=0.98
+ $X2=1.485 $Y2=0.615
r96 2 31 150 $w=1.7e-07 $l=8.24318e-07 $layer=licon1_PDIFF $count=4 $X=0.135
+ $Y=2.32 $X2=0.89 $Y2=2.465
r97 1 16 182 $w=1.7e-07 $l=2.73038e-07 $layer=licon1_NDIFF $count=1 $X=0.135
+ $Y=0.37 $X2=0.28 $Y2=0.58
.ends

.subckt PM_SKY130_FD_SC_LS__SDFRBP_1%SCE 3 6 7 9 11 12 14 19 20 21 22 23 26 27
+ 31 32 33 38 46 49 51 60 62
c97 27 0 3.49301e-19 $X=2.51 $Y=1.425
c98 21 0 1.69076e-19 $X=2.625 $Y=0.9
r99 51 60 2.36399 $w=3.88e-07 $l=8e-08 $layer=LI1_cond $X=1.6 $Y=1.685 $X2=1.68
+ $Y2=1.685
r100 44 46 28.8521 $w=3.3e-07 $l=1.65e-07 $layer=POLY_cond $X=1.45 $Y=1.715
+ $X2=1.615 $Y2=1.715
r101 44 45 96.8533 $w=1.7e-07 $l=2.55e-07 $layer=licon1_POLY $count=1 $X=1.45
+ $Y=1.715 $X2=1.45 $Y2=1.715
r102 42 44 58.5785 $w=3.3e-07 $l=3.35e-07 $layer=POLY_cond $X=1.115 $Y=1.715
+ $X2=1.45 $Y2=1.715
r103 38 42 15.7375 $w=3.3e-07 $l=9e-08 $layer=POLY_cond $X=1.025 $Y=1.715
+ $X2=1.115 $Y2=1.715
r104 38 40 44.5896 $w=3.3e-07 $l=2.55e-07 $layer=POLY_cond $X=1.025 $Y=1.715
+ $X2=0.77 $Y2=1.715
r105 33 62 7.07103 $w=3.88e-07 $l=1.13e-07 $layer=LI1_cond $X=1.682 $Y=1.685
+ $X2=1.795 $Y2=1.685
r106 33 60 0.0590996 $w=3.88e-07 $l=2e-09 $layer=LI1_cond $X=1.682 $Y=1.685
+ $X2=1.68 $Y2=1.685
r107 33 51 0.0886495 $w=3.88e-07 $l=3e-09 $layer=LI1_cond $X=1.597 $Y=1.685
+ $X2=1.6 $Y2=1.685
r108 33 45 4.34382 $w=3.88e-07 $l=1.47e-07 $layer=LI1_cond $X=1.597 $Y=1.685
+ $X2=1.45 $Y2=1.685
r109 32 45 7.38745 $w=3.88e-07 $l=2.5e-07 $layer=LI1_cond $X=1.2 $Y=1.685
+ $X2=1.45 $Y2=1.685
r110 31 32 14.1839 $w=3.88e-07 $l=4.8e-07 $layer=LI1_cond $X=0.72 $Y=1.685
+ $X2=1.2 $Y2=1.685
r111 31 40 96.8533 $w=1.7e-07 $l=2.55e-07 $layer=licon1_POLY $count=1 $X=0.77
+ $Y=1.715 $X2=0.77 $Y2=1.715
r112 27 49 46.2115 $w=3.3e-07 $l=1.65e-07 $layer=POLY_cond $X=2.51 $Y=1.425
+ $X2=2.51 $Y2=1.26
r113 26 29 5.23838 $w=3.28e-07 $l=1.5e-07 $layer=LI1_cond $X=2.56 $Y=1.425
+ $X2=2.56 $Y2=1.575
r114 26 27 145.28 $w=1.7e-07 $l=1.7e-07 $layer=licon1_POLY $count=1 $X=2.51
+ $Y=1.425 $X2=2.51 $Y2=1.425
r115 23 29 4.62375 $w=1.7e-07 $l=1.65e-07 $layer=LI1_cond $X=2.395 $Y=1.575
+ $X2=2.56 $Y2=1.575
r116 23 62 39.1444 $w=1.68e-07 $l=6e-07 $layer=LI1_cond $X=2.395 $Y=1.575
+ $X2=1.795 $Y2=1.575
r117 22 49 107.681 $w=1.5e-07 $l=2.1e-07 $layer=POLY_cond $X=2.6 $Y=1.05 $X2=2.6
+ $Y2=1.26
r118 21 22 49.7366 $w=2e-07 $l=1.5e-07 $layer=POLY_cond $X=2.625 $Y=0.9
+ $X2=2.625 $Y2=1.05
r119 20 40 34.9723 $w=3.3e-07 $l=2e-07 $layer=POLY_cond $X=0.57 $Y=1.715
+ $X2=0.77 $Y2=1.715
r120 19 21 91.58 $w=1.5e-07 $l=2.85e-07 $layer=POLY_cond $X=2.65 $Y=0.615
+ $X2=2.65 $Y2=0.9
r121 12 14 126.927 $w=1.5e-07 $l=3.95e-07 $layer=POLY_cond $X=1.615 $Y=2.245
+ $X2=1.615 $Y2=2.64
r122 11 12 36.0588 $w=1.8e-07 $l=9e-08 $layer=POLY_cond $X=1.615 $Y=2.155
+ $X2=1.615 $Y2=2.245
r123 10 46 16.9318 $w=1.8e-07 $l=1.65e-07 $layer=POLY_cond $X=1.615 $Y=1.88
+ $X2=1.615 $Y2=1.715
r124 10 11 106.895 $w=1.8e-07 $l=2.75e-07 $layer=POLY_cond $X=1.615 $Y=1.88
+ $X2=1.615 $Y2=2.155
r125 7 9 126.927 $w=1.5e-07 $l=3.95e-07 $layer=POLY_cond $X=1.115 $Y=2.245
+ $X2=1.115 $Y2=2.64
r126 6 7 36.0588 $w=1.8e-07 $l=9e-08 $layer=POLY_cond $X=1.115 $Y=2.155
+ $X2=1.115 $Y2=2.245
r127 5 42 16.9318 $w=1.8e-07 $l=1.65e-07 $layer=POLY_cond $X=1.115 $Y=1.88
+ $X2=1.115 $Y2=1.715
r128 5 6 106.895 $w=1.8e-07 $l=2.75e-07 $layer=POLY_cond $X=1.115 $Y=1.88
+ $X2=1.115 $Y2=2.155
r129 1 20 32.1775 $w=3.3e-07 $l=1.98997e-07 $layer=POLY_cond $X=0.495 $Y=1.55
+ $X2=0.57 $Y2=1.715
r130 1 3 497.383 $w=1.5e-07 $l=9.7e-07 $layer=POLY_cond $X=0.495 $Y=1.55
+ $X2=0.495 $Y2=0.58
.ends

.subckt PM_SKY130_FD_SC_LS__SDFRBP_1%D 3 6 7 9 10 13 14
c46 14 0 3.42316e-19 $X=1.935 $Y=1.145
c47 7 0 4.33637e-20 $X=2.035 $Y=2.245
r48 13 16 40.8147 $w=3.55e-07 $l=1.65e-07 $layer=POLY_cond $X=1.947 $Y=1.145
+ $X2=1.947 $Y2=1.31
r49 13 15 46.504 $w=3.55e-07 $l=1.65e-07 $layer=POLY_cond $X=1.947 $Y=1.145
+ $X2=1.947 $Y2=0.98
r50 13 14 145.28 $w=1.7e-07 $l=1.7e-07 $layer=licon1_POLY $count=1 $X=1.935
+ $Y=1.145 $X2=1.935 $Y2=1.145
r51 10 14 6.1 $w=4.98e-07 $l=2.55e-07 $layer=LI1_cond $X=1.68 $Y=1.06 $X2=1.935
+ $Y2=1.06
r52 7 9 126.927 $w=1.5e-07 $l=3.95e-07 $layer=POLY_cond $X=2.035 $Y=2.245
+ $X2=2.035 $Y2=2.64
r53 6 7 36.0588 $w=1.8e-07 $l=9e-08 $layer=POLY_cond $X=2.035 $Y=2.155 $X2=2.035
+ $Y2=2.245
r54 6 16 328.46 $w=1.8e-07 $l=8.45e-07 $layer=POLY_cond $X=2.035 $Y=2.155
+ $X2=2.035 $Y2=1.31
r55 3 15 187.16 $w=1.5e-07 $l=3.65e-07 $layer=POLY_cond $X=1.97 $Y=0.615
+ $X2=1.97 $Y2=0.98
.ends

.subckt PM_SKY130_FD_SC_LS__SDFRBP_1%SCD 3 6 10 11 12 13 17
c42 12 0 1.58733e-19 $X=3.12 $Y=1.665
c43 11 0 7.60406e-20 $X=3.05 $Y=2.245
c44 6 0 1.93733e-19 $X=3.04 $Y=0.615
r45 12 13 15.0167 $w=3.28e-07 $l=4.3e-07 $layer=LI1_cond $X=3.1 $Y=1.605 $X2=3.1
+ $Y2=2.035
r46 12 17 72.64 $w=1.7e-07 $l=3.4e-07 $layer=licon1_POLY $count=2 $X=3.05
+ $Y=1.605 $X2=3.05 $Y2=1.605
r47 10 17 83.0591 $w=3.3e-07 $l=4.75e-07 $layer=POLY_cond $X=3.05 $Y=2.08
+ $X2=3.05 $Y2=1.605
r48 10 11 38.3209 $w=3.3e-07 $l=1.65e-07 $layer=POLY_cond $X=3.05 $Y=2.08
+ $X2=3.05 $Y2=2.245
r49 9 17 38.0424 $w=3.3e-07 $l=1.65e-07 $layer=POLY_cond $X=3.05 $Y=1.44
+ $X2=3.05 $Y2=1.605
r50 6 9 423.032 $w=1.5e-07 $l=8.25e-07 $layer=POLY_cond $X=3.04 $Y=0.615
+ $X2=3.04 $Y2=1.44
r51 3 11 126.927 $w=1.5e-07 $l=3.95e-07 $layer=POLY_cond $X=3.035 $Y=2.64
+ $X2=3.035 $Y2=2.245
.ends

.subckt PM_SKY130_FD_SC_LS__SDFRBP_1%CLK 1 2 3 5 7 10 12 13 14 18 19 23
c61 23 0 3.88236e-19 $X=4.08 $Y=1.295
c62 13 0 1.4151e-19 $X=4.62 $Y=1.885
r63 21 23 0.542222 $w=4.5e-07 $l=2e-08 $layer=LI1_cond $X=4.06 $Y=1.405 $X2=4.08
+ $Y2=1.405
r64 18 19 72.64 $w=1.7e-07 $l=3.4e-07 $layer=licon1_POLY $count=2 $X=3.95
+ $Y=1.115 $X2=3.95 $Y2=1.115
r65 14 21 4.60977 $w=2.73e-07 $l=1.1e-07 $layer=LI1_cond $X=3.922 $Y=1.295
+ $X2=3.922 $Y2=1.405
r66 14 19 7.54326 $w=2.73e-07 $l=1.8e-07 $layer=LI1_cond $X=3.922 $Y=1.295
+ $X2=3.922 $Y2=1.115
r67 14 23 0.867556 $w=4.5e-07 $l=3.2e-08 $layer=LI1_cond $X=4.112 $Y=1.405
+ $X2=4.08 $Y2=1.405
r68 11 18 51.5841 $w=3.3e-07 $l=2.95e-07 $layer=POLY_cond $X=3.95 $Y=1.41
+ $X2=3.95 $Y2=1.115
r69 10 13 184.767 $w=1.5e-07 $l=5.75e-07 $layer=POLY_cond $X=4.645 $Y=2.46
+ $X2=4.645 $Y2=1.885
r70 7 13 37.4512 $w=2e-07 $l=1e-07 $layer=POLY_cond $X=4.62 $Y=1.785 $X2=4.62
+ $Y2=1.885
r71 6 12 23.6879 $w=1.75e-07 $l=1.05e-07 $layer=POLY_cond $X=4.62 $Y=1.62
+ $X2=4.62 $Y2=1.515
r72 6 7 54.7102 $w=2e-07 $l=1.65e-07 $layer=POLY_cond $X=4.62 $Y=1.62 $X2=4.62
+ $Y2=1.785
r73 3 12 23.6879 $w=1.75e-07 $l=1.16833e-07 $layer=POLY_cond $X=4.595 $Y=1.41
+ $X2=4.62 $Y2=1.515
r74 3 5 142.993 $w=1.5e-07 $l=4.45e-07 $layer=POLY_cond $X=4.595 $Y=1.41
+ $X2=4.595 $Y2=0.965
r75 2 11 28.6974 $w=2.1e-07 $l=2.11069e-07 $layer=POLY_cond $X=4.115 $Y=1.515
+ $X2=3.95 $Y2=1.41
r76 1 12 2.7459 $w=2.1e-07 $l=1e-07 $layer=POLY_cond $X=4.52 $Y=1.515 $X2=4.62
+ $Y2=1.515
r77 1 2 127.894 $w=2.1e-07 $l=4.05e-07 $layer=POLY_cond $X=4.52 $Y=1.515
+ $X2=4.115 $Y2=1.515
.ends

.subckt PM_SKY130_FD_SC_LS__SDFRBP_1%A_1034_392# 1 2 8 9 11 12 16 18 20 21 22 23
+ 25 26 33 35 36 37 38 40 44 45 46 48 49 50 52 54 57 61 68 69 73 75
c217 69 0 1.6856e-19 $X=9.27 $Y=1.07
c218 68 0 1.89827e-19 $X=9.27 $Y=1.07
c219 46 0 1.61901e-19 $X=7.22 $Y=0.665
c220 9 0 1.58245e-19 $X=6.135 $Y=2.21
r221 69 81 15.7375 $w=3.3e-07 $l=9e-08 $layer=POLY_cond $X=9.27 $Y=1.07 $X2=9.27
+ $Y2=1.16
r222 68 69 145.28 $w=1.7e-07 $l=1.7e-07 $layer=licon1_POLY $count=1 $X=9.27
+ $Y=1.07 $X2=9.27 $Y2=1.07
r223 65 68 23.4866 $w=1.68e-07 $l=3.6e-07 $layer=LI1_cond $X=8.91 $Y=0.99
+ $X2=9.27 $Y2=0.99
r224 60 61 9.72653 $w=4.03e-07 $l=2.15e-07 $layer=LI1_cond $X=5.422 $Y=1.07
+ $X2=5.422 $Y2=1.285
r225 57 58 145.28 $w=1.7e-07 $l=1.7e-07 $layer=licon1_POLY $count=1 $X=9.67
+ $Y=2.065 $X2=9.67 $Y2=2.065
r226 55 73 0.201461 $w=2.5e-07 $l=1.15e-07 $layer=LI1_cond $X=9.63 $Y=1.575
+ $X2=9.63 $Y2=1.46
r227 55 57 22.5879 $w=2.48e-07 $l=4.9e-07 $layer=LI1_cond $X=9.63 $Y=1.575
+ $X2=9.63 $Y2=2.065
r228 54 73 18.0382 $w=2.28e-07 $l=3.6e-07 $layer=LI1_cond $X=9.27 $Y=1.46
+ $X2=9.63 $Y2=1.46
r229 54 68 9.42908 $w=3.28e-07 $l=2.7e-07 $layer=LI1_cond $X=9.27 $Y=1.345
+ $X2=9.27 $Y2=1.075
r230 52 65 0.716491 $w=1.7e-07 $l=8.5e-08 $layer=LI1_cond $X=8.91 $Y=0.905
+ $X2=8.91 $Y2=0.99
r231 51 52 31.3155 $w=1.68e-07 $l=4.8e-07 $layer=LI1_cond $X=8.91 $Y=0.425
+ $X2=8.91 $Y2=0.905
r232 49 51 6.81649 $w=1.7e-07 $l=1.20208e-07 $layer=LI1_cond $X=8.825 $Y=0.34
+ $X2=8.91 $Y2=0.425
r233 49 50 47.2995 $w=1.68e-07 $l=7.25e-07 $layer=LI1_cond $X=8.825 $Y=0.34
+ $X2=8.1 $Y2=0.34
r234 47 50 6.81649 $w=1.7e-07 $l=1.20208e-07 $layer=LI1_cond $X=8.015 $Y=0.425
+ $X2=8.1 $Y2=0.34
r235 47 48 10.1123 $w=1.68e-07 $l=1.55e-07 $layer=LI1_cond $X=8.015 $Y=0.425
+ $X2=8.015 $Y2=0.58
r236 45 48 6.81649 $w=1.7e-07 $l=1.20208e-07 $layer=LI1_cond $X=7.93 $Y=0.665
+ $X2=8.015 $Y2=0.58
r237 45 46 46.3209 $w=1.68e-07 $l=7.1e-07 $layer=LI1_cond $X=7.93 $Y=0.665
+ $X2=7.22 $Y2=0.665
r238 44 46 6.81649 $w=1.7e-07 $l=1.20208e-07 $layer=LI1_cond $X=7.135 $Y=0.58
+ $X2=7.22 $Y2=0.665
r239 43 44 10.1123 $w=1.68e-07 $l=1.55e-07 $layer=LI1_cond $X=7.135 $Y=0.425
+ $X2=7.135 $Y2=0.58
r240 41 78 40.6903 $w=3.3e-07 $l=1.65e-07 $layer=POLY_cond $X=6.085 $Y=1.71
+ $X2=6.085 $Y2=1.875
r241 41 75 13.1146 $w=3.3e-07 $l=7.5e-08 $layer=POLY_cond $X=6.085 $Y=1.71
+ $X2=6.085 $Y2=1.635
r242 40 41 145.28 $w=1.7e-07 $l=1.7e-07 $layer=licon1_POLY $count=1 $X=6.085
+ $Y=1.71 $X2=6.085 $Y2=1.71
r243 38 40 15.8897 $w=3.28e-07 $l=4.55e-07 $layer=LI1_cond $X=5.63 $Y=1.71
+ $X2=6.085 $Y2=1.71
r244 36 43 6.81649 $w=1.7e-07 $l=1.20208e-07 $layer=LI1_cond $X=7.05 $Y=0.34
+ $X2=7.135 $Y2=0.425
r245 36 37 93.2941 $w=1.68e-07 $l=1.43e-06 $layer=LI1_cond $X=7.05 $Y=0.34
+ $X2=5.62 $Y2=0.34
r246 35 38 10.1667 $w=1.78e-07 $l=1.65e-07 $layer=LI1_cond $X=5.54 $Y=1.545
+ $X2=5.54 $Y2=1.71
r247 35 61 16.0202 $w=1.78e-07 $l=2.6e-07 $layer=LI1_cond $X=5.54 $Y=1.545
+ $X2=5.54 $Y2=1.285
r248 33 60 8.25206 $w=4.03e-07 $l=2.9e-07 $layer=LI1_cond $X=5.417 $Y=0.78
+ $X2=5.417 $Y2=1.07
r249 30 37 8.41448 $w=1.7e-07 $l=2.41793e-07 $layer=LI1_cond $X=5.417 $Y=0.425
+ $X2=5.62 $Y2=0.34
r250 30 33 10.1017 $w=4.03e-07 $l=3.55e-07 $layer=LI1_cond $X=5.417 $Y=0.425
+ $X2=5.417 $Y2=0.78
r251 26 38 23.1061 $w=1.78e-07 $l=3.75e-07 $layer=LI1_cond $X=5.54 $Y=2.085
+ $X2=5.54 $Y2=1.71
r252 26 28 5.76222 $w=2.58e-07 $l=1.3e-07 $layer=LI1_cond $X=5.45 $Y=2.085
+ $X2=5.32 $Y2=2.085
r253 23 58 60.889 $w=3.02e-07 $l=3.46215e-07 $layer=POLY_cond $X=9.77 $Y=2.37
+ $X2=9.682 $Y2=2.065
r254 23 25 91.58 $w=1.5e-07 $l=2.85e-07 $layer=POLY_cond $X=9.77 $Y=2.37
+ $X2=9.77 $Y2=2.655
r255 21 81 21.2229 $w=1.5e-07 $l=1.65e-07 $layer=POLY_cond $X=9.105 $Y=1.16
+ $X2=9.27 $Y2=1.16
r256 21 22 189.723 $w=1.5e-07 $l=3.7e-07 $layer=POLY_cond $X=9.105 $Y=1.16
+ $X2=8.735 $Y2=1.16
r257 18 22 26.9307 $w=1.5e-07 $l=1.06066e-07 $layer=POLY_cond $X=8.66 $Y=1.085
+ $X2=8.735 $Y2=1.16
r258 18 20 126.927 $w=1.5e-07 $l=3.95e-07 $layer=POLY_cond $X=8.66 $Y=1.085
+ $X2=8.66 $Y2=0.69
r259 14 16 379.447 $w=1.5e-07 $l=7.4e-07 $layer=POLY_cond $X=6.525 $Y=1.545
+ $X2=6.525 $Y2=0.805
r260 13 75 16.9318 $w=1.8e-07 $l=1.65e-07 $layer=POLY_cond $X=6.25 $Y=1.635
+ $X2=6.085 $Y2=1.635
r261 12 14 27.2212 $w=1.8e-07 $l=1.21861e-07 $layer=POLY_cond $X=6.45 $Y=1.635
+ $X2=6.525 $Y2=1.545
r262 12 13 77.7419 $w=1.8e-07 $l=2e-07 $layer=POLY_cond $X=6.45 $Y=1.635
+ $X2=6.25 $Y2=1.635
r263 9 11 91.58 $w=1.5e-07 $l=2.85e-07 $layer=POLY_cond $X=6.135 $Y=2.21
+ $X2=6.135 $Y2=2.495
r264 8 9 36.0588 $w=1.8e-07 $l=9e-08 $layer=POLY_cond $X=6.135 $Y=2.12 $X2=6.135
+ $Y2=2.21
r265 8 78 95.2339 $w=1.8e-07 $l=2.45e-07 $layer=POLY_cond $X=6.135 $Y=2.12
+ $X2=6.135 $Y2=1.875
r266 2 28 600 $w=1.7e-07 $l=2.33238e-07 $layer=licon1_PDIFF $count=1 $X=5.17
+ $Y=1.96 $X2=5.32 $Y2=2.13
r267 1 33 91 $w=1.7e-07 $l=2.45204e-07 $layer=licon1_NDIFF $count=2 $X=5.22
+ $Y=0.595 $X2=5.36 $Y2=0.78
.ends

.subckt PM_SKY130_FD_SC_LS__SDFRBP_1%A_1367_93# 1 2 9 13 17 18 21 23 24 26 32 33
c111 33 0 1.6856e-19 $X=8.57 $Y=0.842
c112 24 0 4.08738e-20 $X=8.81 $Y=1.415
c113 9 0 1.43931e-19 $X=6.91 $Y=0.805
r114 39 41 6.12014 $w=3.3e-07 $l=3.5e-08 $layer=POLY_cond $X=6.91 $Y=1.64
+ $X2=6.945 $Y2=1.64
r115 31 33 3.0204 $w=4.93e-07 $l=1.25e-07 $layer=LI1_cond $X=8.445 $Y=0.842
+ $X2=8.57 $Y2=0.842
r116 31 32 9.72819 $w=4.93e-07 $l=1.75e-07 $layer=LI1_cond $X=8.445 $Y=0.842
+ $X2=8.27 $Y2=0.842
r117 26 28 32.7294 $w=2.48e-07 $l=7.1e-07 $layer=LI1_cond $X=8.81 $Y=1.88
+ $X2=8.81 $Y2=2.59
r118 24 35 15.6578 $w=1.68e-07 $l=2.4e-07 $layer=LI1_cond $X=8.81 $Y=1.33
+ $X2=8.57 $Y2=1.33
r119 24 26 21.4354 $w=2.48e-07 $l=4.65e-07 $layer=LI1_cond $X=8.81 $Y=1.415
+ $X2=8.81 $Y2=1.88
r120 23 35 0.716491 $w=1.7e-07 $l=8.5e-08 $layer=LI1_cond $X=8.57 $Y=1.245
+ $X2=8.57 $Y2=1.33
r121 22 33 7.09362 $w=1.7e-07 $l=2.48e-07 $layer=LI1_cond $X=8.57 $Y=1.09
+ $X2=8.57 $Y2=0.842
r122 22 23 10.1123 $w=1.68e-07 $l=1.55e-07 $layer=LI1_cond $X=8.57 $Y=1.09
+ $X2=8.57 $Y2=1.245
r123 21 32 65.5668 $w=1.68e-07 $l=1.005e-06 $layer=LI1_cond $X=7.265 $Y=1.005
+ $X2=8.27 $Y2=1.005
r124 18 41 34.9723 $w=3.3e-07 $l=2e-07 $layer=POLY_cond $X=7.145 $Y=1.64
+ $X2=6.945 $Y2=1.64
r125 17 18 145.28 $w=1.7e-07 $l=1.7e-07 $layer=licon1_POLY $count=1 $X=7.145
+ $Y=1.64 $X2=7.145 $Y2=1.64
r126 15 21 7.07814 $w=1.7e-07 $l=1.56844e-07 $layer=LI1_cond $X=7.145 $Y=1.09
+ $X2=7.265 $Y2=1.005
r127 15 17 26.4102 $w=2.38e-07 $l=5.5e-07 $layer=LI1_cond $X=7.145 $Y=1.09
+ $X2=7.145 $Y2=1.64
r128 11 41 21.2229 $w=1.5e-07 $l=1.65e-07 $layer=POLY_cond $X=6.945 $Y=1.805
+ $X2=6.945 $Y2=1.64
r129 11 13 353.809 $w=1.5e-07 $l=6.9e-07 $layer=POLY_cond $X=6.945 $Y=1.805
+ $X2=6.945 $Y2=2.495
r130 7 39 21.2229 $w=1.5e-07 $l=1.65e-07 $layer=POLY_cond $X=6.91 $Y=1.475
+ $X2=6.91 $Y2=1.64
r131 7 9 343.553 $w=1.5e-07 $l=6.7e-07 $layer=POLY_cond $X=6.91 $Y=1.475
+ $X2=6.91 $Y2=0.805
r132 2 28 400 $w=1.7e-07 $l=9.26971e-07 $layer=licon1_PDIFF $count=1 $X=8.62
+ $Y=1.735 $X2=8.77 $Y2=2.59
r133 2 26 400 $w=1.7e-07 $l=2.10357e-07 $layer=licon1_PDIFF $count=1 $X=8.62
+ $Y=1.735 $X2=8.77 $Y2=1.88
r134 1 31 182 $w=1.7e-07 $l=5.0951e-07 $layer=licon1_NDIFF $count=1 $X=8.295
+ $Y=0.37 $X2=8.445 $Y2=0.81
.ends

.subckt PM_SKY130_FD_SC_LS__SDFRBP_1%RESET_B 4 7 8 9 10 11 15 16 18 20 23 27 34
+ 37 41 43 44 45 46 47 48 56 60 62 65 67 68 69
c249 68 0 1.5378e-19 $X=10.9 $Y=1.845
c250 67 0 2.44776e-20 $X=10.9 $Y=1.845
c251 60 0 1.4151e-19 $X=3.95 $Y=1.995
c252 44 0 8.18376e-20 $X=10.81 $Y=2.37
c253 41 0 6.47027e-20 $X=10.81 $Y=1.335
c254 34 0 9.37604e-20 $X=3.56 $Y=2.245
c255 15 0 1.75393e-19 $X=7.3 $Y=0.805
c256 10 0 1.98276e-19 $X=3.93 $Y=1.995
r257 68 77 5.91795 $w=3.68e-07 $l=1.9e-07 $layer=LI1_cond $X=10.88 $Y=1.845
+ $X2=10.88 $Y2=2.035
r258 67 70 46.2115 $w=3.3e-07 $l=1.65e-07 $layer=POLY_cond $X=10.9 $Y=1.845
+ $X2=10.9 $Y2=2.01
r259 67 69 46.2115 $w=3.3e-07 $l=1.65e-07 $layer=POLY_cond $X=10.9 $Y=1.845
+ $X2=10.9 $Y2=1.68
r260 67 68 145.28 $w=1.7e-07 $l=1.7e-07 $layer=licon1_POLY $count=1 $X=10.9
+ $Y=1.845 $X2=10.9 $Y2=1.845
r261 64 65 145.28 $w=1.7e-07 $l=1.7e-07 $layer=licon1_POLY $count=1 $X=7.86
+ $Y=1.96 $X2=7.86 $Y2=1.96
r262 62 64 39.5449 $w=3.23e-07 $l=2.65e-07 $layer=POLY_cond $X=7.595 $Y=2.002
+ $X2=7.86 $Y2=2.002
r263 59 60 145.28 $w=1.7e-07 $l=1.7e-07 $layer=licon1_POLY $count=1 $X=3.95
+ $Y=1.995 $X2=3.95 $Y2=1.995
r264 56 77 9.3 $w=1.7e-07 $l=1.7e-07 $layer=mcon $count=1 $X=10.8 $Y=2.035
+ $X2=10.8 $Y2=2.035
r265 54 65 9.3 $w=1.7e-07 $l=1.7e-07 $layer=mcon $count=1 $X=7.92 $Y=2.035
+ $X2=7.92 $Y2=2.035
r266 50 60 9.3 $w=1.7e-07 $l=1.7e-07 $layer=mcon $count=1 $X=4.08 $Y=2.035
+ $X2=4.08 $Y2=2.035
r267 48 54 0.115467 $w=2.3e-07 $l=1.45e-07 $layer=MET1_cond $X=8.065 $Y=2.035
+ $X2=7.92 $Y2=2.035
r268 47 56 0.115467 $w=2.3e-07 $l=1.45e-07 $layer=MET1_cond $X=10.655 $Y=2.035
+ $X2=10.8 $Y2=2.035
r269 47 48 3.20544 $w=1.4e-07 $l=2.59e-06 $layer=MET1_cond $X=10.655 $Y=2.035
+ $X2=8.065 $Y2=2.035
r270 46 50 0.115467 $w=2.3e-07 $l=1.45e-07 $layer=MET1_cond $X=4.225 $Y=2.035
+ $X2=4.08 $Y2=2.035
r271 45 54 0.115467 $w=2.3e-07 $l=1.45e-07 $layer=MET1_cond $X=7.775 $Y=2.035
+ $X2=7.92 $Y2=2.035
r272 45 46 4.39356 $w=1.4e-07 $l=3.55e-06 $layer=MET1_cond $X=7.775 $Y=2.035
+ $X2=4.225 $Y2=2.035
r273 43 44 47.3682 $w=2.1e-07 $l=1.5e-07 $layer=POLY_cond $X=10.81 $Y=2.22
+ $X2=10.81 $Y2=2.37
r274 43 70 107.681 $w=1.5e-07 $l=2.1e-07 $layer=POLY_cond $X=10.84 $Y=2.22
+ $X2=10.84 $Y2=2.01
r275 39 41 135.883 $w=1.5e-07 $l=2.65e-07 $layer=POLY_cond $X=10.545 $Y=1.335
+ $X2=10.81 $Y2=1.335
r276 35 37 151.266 $w=1.5e-07 $l=2.95e-07 $layer=POLY_cond $X=7.3 $Y=1.19
+ $X2=7.595 $Y2=1.19
r277 28 41 2.83073 $w=1.5e-07 $l=7.5e-08 $layer=POLY_cond $X=10.81 $Y=1.41
+ $X2=10.81 $Y2=1.335
r278 28 69 138.447 $w=1.5e-07 $l=2.7e-07 $layer=POLY_cond $X=10.81 $Y=1.41
+ $X2=10.81 $Y2=1.68
r279 27 44 91.58 $w=1.5e-07 $l=2.85e-07 $layer=POLY_cond $X=10.795 $Y=2.655
+ $X2=10.795 $Y2=2.37
r280 21 39 2.83073 $w=1.5e-07 $l=7.5e-08 $layer=POLY_cond $X=10.545 $Y=1.26
+ $X2=10.545 $Y2=1.335
r281 21 23 348.681 $w=1.5e-07 $l=6.8e-07 $layer=POLY_cond $X=10.545 $Y=1.26
+ $X2=10.545 $Y2=0.58
r282 20 62 20.7134 $w=1.5e-07 $l=2.07e-07 $layer=POLY_cond $X=7.595 $Y=1.795
+ $X2=7.595 $Y2=2.002
r283 19 37 2.83073 $w=1.5e-07 $l=7.5e-08 $layer=POLY_cond $X=7.595 $Y=1.265
+ $X2=7.595 $Y2=1.19
r284 19 20 271.766 $w=1.5e-07 $l=5.3e-07 $layer=POLY_cond $X=7.595 $Y=1.265
+ $X2=7.595 $Y2=1.795
r285 16 62 29.8452 $w=3.23e-07 $l=2.91314e-07 $layer=POLY_cond $X=7.395 $Y=2.21
+ $X2=7.595 $Y2=2.002
r286 16 18 91.58 $w=1.5e-07 $l=2.85e-07 $layer=POLY_cond $X=7.395 $Y=2.21
+ $X2=7.395 $Y2=2.495
r287 13 35 2.83073 $w=1.5e-07 $l=7.5e-08 $layer=POLY_cond $X=7.3 $Y=1.115
+ $X2=7.3 $Y2=1.19
r288 13 15 158.957 $w=1.5e-07 $l=3.1e-07 $layer=POLY_cond $X=7.3 $Y=1.115
+ $X2=7.3 $Y2=0.805
r289 12 15 282.021 $w=1.5e-07 $l=5.5e-07 $layer=POLY_cond $X=7.3 $Y=0.255
+ $X2=7.3 $Y2=0.805
r290 11 34 67.3007 $w=2.7e-07 $l=2.5e-07 $layer=POLY_cond $X=3.56 $Y=1.995
+ $X2=3.56 $Y2=2.245
r291 11 33 48.4159 $w=2.7e-07 $l=1.65e-07 $layer=POLY_cond $X=3.56 $Y=1.995
+ $X2=3.56 $Y2=1.83
r292 10 59 2.92121 $w=3.3e-07 $l=2e-08 $layer=POLY_cond $X=3.93 $Y=1.995
+ $X2=3.95 $Y2=1.995
r293 10 11 41.0924 $w=3.3e-07 $l=2.35e-07 $layer=POLY_cond $X=3.93 $Y=1.995
+ $X2=3.695 $Y2=1.995
r294 8 12 26.9307 $w=1.5e-07 $l=1.06066e-07 $layer=POLY_cond $X=7.225 $Y=0.18
+ $X2=7.3 $Y2=0.255
r295 8 9 1871.6 $w=1.5e-07 $l=3.65e-06 $layer=POLY_cond $X=7.225 $Y=0.18
+ $X2=3.575 $Y2=0.18
r296 7 34 126.927 $w=1.5e-07 $l=3.95e-07 $layer=POLY_cond $X=3.605 $Y=2.64
+ $X2=3.605 $Y2=2.245
r297 4 33 623.011 $w=1.5e-07 $l=1.215e-06 $layer=POLY_cond $X=3.5 $Y=0.615
+ $X2=3.5 $Y2=1.83
r298 1 9 26.9307 $w=1.5e-07 $l=1.06066e-07 $layer=POLY_cond $X=3.5 $Y=0.255
+ $X2=3.575 $Y2=0.18
r299 1 4 184.596 $w=1.5e-07 $l=3.6e-07 $layer=POLY_cond $X=3.5 $Y=0.255 $X2=3.5
+ $Y2=0.615
.ends

.subckt PM_SKY130_FD_SC_LS__SDFRBP_1%A_1234_119# 1 2 3 12 14 16 17 21 24 26 27
+ 30 33 35 39 43 44 46 47 50
c138 43 0 7.56682e-20 $X=6.77 $Y=2.075
c139 35 0 2.13861e-20 $X=8.15 $Y=1.41
c140 24 0 1.75393e-19 $X=6.77 $Y=1.985
c141 21 0 1.51844e-20 $X=6.685 $Y=0.945
c142 17 0 1.58245e-19 $X=6.685 $Y=2.555
r143 50 51 59.3371 $w=2.64e-07 $l=3.25e-07 $layer=POLY_cond $X=8.22 $Y=1.452
+ $X2=8.545 $Y2=1.452
r144 46 47 10.0337 $w=3.28e-07 $l=2.1e-07 $layer=LI1_cond $X=7.6 $Y=2.53 $X2=7.6
+ $Y2=2.32
r145 39 41 4.78707 $w=3.23e-07 $l=1.35e-07 $layer=LI1_cond $X=6.307 $Y=0.81
+ $X2=6.307 $Y2=0.945
r146 36 50 12.7803 $w=2.64e-07 $l=7e-08 $layer=POLY_cond $X=8.15 $Y=1.452
+ $X2=8.22 $Y2=1.452
r147 35 36 145.28 $w=1.7e-07 $l=1.7e-07 $layer=licon1_POLY $count=1 $X=8.15
+ $Y=1.41 $X2=8.15 $Y2=1.41
r148 33 35 22.0379 $w=2.83e-07 $l=5.45e-07 $layer=LI1_cond $X=7.605 $Y=1.402
+ $X2=8.15 $Y2=1.402
r149 31 44 5.41628 $w=1.7e-07 $l=9e-08 $layer=LI1_cond $X=7.52 $Y=2.165 $X2=7.52
+ $Y2=2.075
r150 31 47 10.1123 $w=1.68e-07 $l=1.55e-07 $layer=LI1_cond $X=7.52 $Y=2.165
+ $X2=7.52 $Y2=2.32
r151 30 44 5.41628 $w=1.7e-07 $l=9e-08 $layer=LI1_cond $X=7.52 $Y=1.985 $X2=7.52
+ $Y2=2.075
r152 29 33 7.39867 $w=2.85e-07 $l=1.80566e-07 $layer=LI1_cond $X=7.52 $Y=1.545
+ $X2=7.605 $Y2=1.402
r153 29 30 28.7059 $w=1.68e-07 $l=4.4e-07 $layer=LI1_cond $X=7.52 $Y=1.545
+ $X2=7.52 $Y2=1.985
r154 28 43 1.13756 $w=1.8e-07 $l=8.5e-08 $layer=LI1_cond $X=6.855 $Y=2.075
+ $X2=6.77 $Y2=2.075
r155 27 44 1.13756 $w=1.8e-07 $l=8.5e-08 $layer=LI1_cond $X=7.435 $Y=2.075
+ $X2=7.52 $Y2=2.075
r156 27 28 35.7374 $w=1.78e-07 $l=5.8e-07 $layer=LI1_cond $X=7.435 $Y=2.075
+ $X2=6.855 $Y2=2.075
r157 25 43 5.41628 $w=1.7e-07 $l=9e-08 $layer=LI1_cond $X=6.77 $Y=2.165 $X2=6.77
+ $Y2=2.075
r158 25 26 14.3529 $w=1.68e-07 $l=2.2e-07 $layer=LI1_cond $X=6.77 $Y=2.165
+ $X2=6.77 $Y2=2.385
r159 24 43 5.41628 $w=1.7e-07 $l=9e-08 $layer=LI1_cond $X=6.77 $Y=1.985 $X2=6.77
+ $Y2=2.075
r160 23 24 62.3048 $w=1.68e-07 $l=9.55e-07 $layer=LI1_cond $X=6.77 $Y=1.03
+ $X2=6.77 $Y2=1.985
r161 22 41 4.53325 $w=1.7e-07 $l=1.63e-07 $layer=LI1_cond $X=6.47 $Y=0.945
+ $X2=6.307 $Y2=0.945
r162 21 23 6.81649 $w=1.7e-07 $l=1.20208e-07 $layer=LI1_cond $X=6.685 $Y=0.945
+ $X2=6.77 $Y2=1.03
r163 21 22 14.0267 $w=1.68e-07 $l=2.15e-07 $layer=LI1_cond $X=6.685 $Y=0.945
+ $X2=6.47 $Y2=0.945
r164 17 26 7.85115 $w=3.4e-07 $l=2.08207e-07 $layer=LI1_cond $X=6.685 $Y=2.555
+ $X2=6.77 $Y2=2.385
r165 17 19 11.016 $w=3.38e-07 $l=3.25e-07 $layer=LI1_cond $X=6.685 $Y=2.555
+ $X2=6.36 $Y2=2.555
r166 14 51 15.9823 $w=1.5e-07 $l=2.08e-07 $layer=POLY_cond $X=8.545 $Y=1.66
+ $X2=8.545 $Y2=1.452
r167 14 16 184.767 $w=1.5e-07 $l=5.75e-07 $layer=POLY_cond $X=8.545 $Y=1.66
+ $X2=8.545 $Y2=2.235
r168 10 50 15.9823 $w=1.5e-07 $l=2.07e-07 $layer=POLY_cond $X=8.22 $Y=1.245
+ $X2=8.22 $Y2=1.452
r169 10 12 284.585 $w=1.5e-07 $l=5.55e-07 $layer=POLY_cond $X=8.22 $Y=1.245
+ $X2=8.22 $Y2=0.69
r170 3 46 600 $w=1.7e-07 $l=3.11087e-07 $layer=licon1_PDIFF $count=1 $X=7.47
+ $Y=2.285 $X2=7.62 $Y2=2.53
r171 2 19 600 $w=1.7e-07 $l=3.36749e-07 $layer=licon1_PDIFF $count=1 $X=6.21
+ $Y=2.285 $X2=6.36 $Y2=2.555
r172 1 39 182 $w=1.7e-07 $l=2.7627e-07 $layer=licon1_NDIFF $count=1 $X=6.17
+ $Y=0.595 $X2=6.31 $Y2=0.81
.ends

.subckt PM_SKY130_FD_SC_LS__SDFRBP_1%A_835_98# 1 2 7 9 10 12 14 15 16 17 19 21
+ 24 26 28 29 33 34 35 38 40 41 44 46 50 53
c179 53 0 1.8996e-19 $X=5.115 $Y=1.635
c180 50 0 9.37604e-20 $X=4.93 $Y=1.852
c181 38 0 1.87652e-19 $X=9.755 $Y=0.58
c182 35 0 6.22599e-20 $X=9.07 $Y=1.585
c183 34 0 2.17443e-21 $X=9.68 $Y=1.585
c184 24 0 7.56682e-20 $X=6.585 $Y=2.495
c185 19 0 1.51844e-20 $X=6.095 $Y=1.115
c186 7 0 1.94423e-19 $X=5.095 $Y=1.875
r187 52 53 145.28 $w=1.7e-07 $l=1.7e-07 $layer=licon1_POLY $count=1 $X=5.115
+ $Y=1.635 $X2=5.115 $Y2=1.635
r188 50 52 5.09481 $w=4.43e-07 $l=2.95354e-07 $layer=LI1_cond $X=4.93 $Y=1.852
+ $X2=5.115 $Y2=1.635
r189 49 50 14.0451 $w=4.43e-07 $l=5.1e-07 $layer=LI1_cond $X=4.42 $Y=1.852
+ $X2=4.93 $Y2=1.852
r190 46 47 9.03704 $w=3.51e-07 $l=2.6e-07 $layer=LI1_cond $X=4.335 $Y=0.665
+ $X2=4.335 $Y2=0.925
r191 44 50 4.57747 $w=2.3e-07 $l=3.97e-07 $layer=LI1_cond $X=4.93 $Y=1.455
+ $X2=4.93 $Y2=1.852
r192 43 44 22.2973 $w=2.28e-07 $l=4.45e-07 $layer=LI1_cond $X=4.93 $Y=1.01
+ $X2=4.93 $Y2=1.455
r193 42 47 4.99104 $w=1.7e-07 $l=2e-07 $layer=LI1_cond $X=4.535 $Y=0.925
+ $X2=4.335 $Y2=0.925
r194 41 43 7.01789 $w=1.7e-07 $l=1.51658e-07 $layer=LI1_cond $X=4.815 $Y=0.925
+ $X2=4.93 $Y2=1.01
r195 41 42 18.2674 $w=1.68e-07 $l=2.8e-07 $layer=LI1_cond $X=4.815 $Y=0.925
+ $X2=4.535 $Y2=0.925
r196 36 38 476.872 $w=1.5e-07 $l=9.3e-07 $layer=POLY_cond $X=9.755 $Y=1.51
+ $X2=9.755 $Y2=0.58
r197 34 36 26.9307 $w=1.5e-07 $l=1.06066e-07 $layer=POLY_cond $X=9.68 $Y=1.585
+ $X2=9.755 $Y2=1.51
r198 34 35 312.787 $w=1.5e-07 $l=6.1e-07 $layer=POLY_cond $X=9.68 $Y=1.585
+ $X2=9.07 $Y2=1.585
r199 31 33 294.84 $w=1.5e-07 $l=5.75e-07 $layer=POLY_cond $X=8.995 $Y=2.81
+ $X2=8.995 $Y2=2.235
r200 30 35 26.9307 $w=1.5e-07 $l=1.06066e-07 $layer=POLY_cond $X=8.995 $Y=1.66
+ $X2=9.07 $Y2=1.585
r201 30 33 294.84 $w=1.5e-07 $l=5.75e-07 $layer=POLY_cond $X=8.995 $Y=1.66
+ $X2=8.995 $Y2=2.235
r202 28 31 36.0588 $w=1.8e-07 $l=9e-08 $layer=POLY_cond $X=8.995 $Y=2.9
+ $X2=8.995 $Y2=2.81
r203 28 29 68.0242 $w=1.8e-07 $l=1.75e-07 $layer=POLY_cond $X=8.995 $Y=2.9
+ $X2=8.995 $Y2=3.075
r204 27 40 20.4101 $w=1.5e-07 $l=7.5e-08 $layer=POLY_cond $X=6.66 $Y=3.15
+ $X2=6.585 $Y2=3.15
r205 26 29 27.2212 $w=1.5e-07 $l=1.21861e-07 $layer=POLY_cond $X=8.905 $Y=3.15
+ $X2=8.995 $Y2=3.075
r206 26 27 1151.16 $w=1.5e-07 $l=2.245e-06 $layer=POLY_cond $X=8.905 $Y=3.15
+ $X2=6.66 $Y2=3.15
r207 22 40 5.30422 $w=1.5e-07 $l=7.5e-08 $layer=POLY_cond $X=6.585 $Y=3.075
+ $X2=6.585 $Y2=3.15
r208 22 24 297.404 $w=1.5e-07 $l=5.8e-07 $layer=POLY_cond $X=6.585 $Y=3.075
+ $X2=6.585 $Y2=2.495
r209 19 21 99.6133 $w=1.5e-07 $l=3.1e-07 $layer=POLY_cond $X=6.095 $Y=1.115
+ $X2=6.095 $Y2=0.805
r210 18 53 37.7859 $w=5.23e-07 $l=5.69122e-07 $layer=POLY_cond $X=5.71 $Y=1.225
+ $X2=5.33 $Y2=1.635
r211 17 19 28.2037 $w=2.2e-07 $l=1.42653e-07 $layer=POLY_cond $X=6.02 $Y=1.225
+ $X2=6.095 $Y2=1.115
r212 17 18 90.4236 $w=2.2e-07 $l=3.1e-07 $layer=POLY_cond $X=6.02 $Y=1.225
+ $X2=5.71 $Y2=1.225
r213 15 40 20.4101 $w=1.5e-07 $l=7.5e-08 $layer=POLY_cond $X=6.51 $Y=3.15
+ $X2=6.585 $Y2=3.15
r214 15 16 420.468 $w=1.5e-07 $l=8.2e-07 $layer=POLY_cond $X=6.51 $Y=3.15
+ $X2=5.69 $Y2=3.15
r215 14 16 26.9307 $w=1.5e-07 $l=1.06066e-07 $layer=POLY_cond $X=5.615 $Y=3.075
+ $X2=5.69 $Y2=3.15
r216 13 53 46.2206 $w=2.61e-07 $l=3.86814e-07 $layer=POLY_cond $X=5.615 $Y=1.875
+ $X2=5.33 $Y2=1.635
r217 13 14 615.319 $w=1.5e-07 $l=1.2e-06 $layer=POLY_cond $X=5.615 $Y=1.875
+ $X2=5.615 $Y2=3.075
r218 10 18 44.3687 $w=5.23e-07 $l=6.50961e-07 $layer=POLY_cond $X=5.145 $Y=1.41
+ $X2=5.71 $Y2=1.225
r219 10 12 142.993 $w=1.5e-07 $l=4.45e-07 $layer=POLY_cond $X=5.145 $Y=1.41
+ $X2=5.145 $Y2=0.965
r220 7 53 46.2206 $w=2.61e-07 $l=3.37639e-07 $layer=POLY_cond $X=5.095 $Y=1.875
+ $X2=5.33 $Y2=1.635
r221 7 9 187.98 $w=1.5e-07 $l=5.85e-07 $layer=POLY_cond $X=5.095 $Y=1.875
+ $X2=5.095 $Y2=2.46
r222 2 49 600 $w=1.7e-07 $l=1.97864e-07 $layer=licon1_PDIFF $count=1 $X=4.275
+ $Y=1.96 $X2=4.42 $Y2=2.085
r223 1 46 182 $w=1.7e-07 $l=2.36643e-07 $layer=licon1_NDIFF $count=1 $X=4.175
+ $Y=0.49 $X2=4.32 $Y2=0.665
.ends

.subckt PM_SKY130_FD_SC_LS__SDFRBP_1%A_2008_48# 1 2 9 11 12 13 15 18 21 22 25 28
+ 29 31 32 34 35 37
c136 29 0 1.60243e-20 $X=11.675 $Y=0.665
c137 21 0 2.44776e-20 $X=10.855 $Y=2.405
c138 18 0 6.47027e-20 $X=10.36 $Y=1.815
r139 37 39 4.01609 $w=3.28e-07 $l=1.15e-07 $layer=LI1_cond $X=11.12 $Y=0.55
+ $X2=11.12 $Y2=0.665
r140 33 34 57.4118 $w=1.68e-07 $l=8.8e-07 $layer=LI1_cond $X=11.76 $Y=0.75
+ $X2=11.76 $Y2=1.63
r141 31 34 6.81649 $w=1.7e-07 $l=1.20208e-07 $layer=LI1_cond $X=11.675 $Y=1.715
+ $X2=11.76 $Y2=1.63
r142 31 32 17.615 $w=1.68e-07 $l=2.7e-07 $layer=LI1_cond $X=11.675 $Y=1.715
+ $X2=11.405 $Y2=1.715
r143 30 39 4.62375 $w=1.7e-07 $l=1.65e-07 $layer=LI1_cond $X=11.285 $Y=0.665
+ $X2=11.12 $Y2=0.665
r144 29 33 6.81649 $w=1.7e-07 $l=1.20208e-07 $layer=LI1_cond $X=11.675 $Y=0.665
+ $X2=11.76 $Y2=0.75
r145 29 30 25.4438 $w=1.68e-07 $l=3.9e-07 $layer=LI1_cond $X=11.675 $Y=0.665
+ $X2=11.285 $Y2=0.665
r146 28 35 3.70735 $w=2.5e-07 $l=2.28583e-07 $layer=LI1_cond $X=11.32 $Y=2.32
+ $X2=11.13 $Y2=2.405
r147 27 32 6.81649 $w=1.7e-07 $l=1.20208e-07 $layer=LI1_cond $X=11.32 $Y=1.8
+ $X2=11.405 $Y2=1.715
r148 27 28 33.9251 $w=1.68e-07 $l=5.2e-07 $layer=LI1_cond $X=11.32 $Y=1.8
+ $X2=11.32 $Y2=2.32
r149 23 35 3.70735 $w=2.5e-07 $l=1.46458e-07 $layer=LI1_cond $X=11.02 $Y=2.49
+ $X2=11.13 $Y2=2.405
r150 23 25 5.76222 $w=3.28e-07 $l=1.65e-07 $layer=LI1_cond $X=11.02 $Y=2.49
+ $X2=11.02 $Y2=2.655
r151 21 35 2.76166 $w=1.7e-07 $l=2.75e-07 $layer=LI1_cond $X=10.855 $Y=2.405
+ $X2=11.13 $Y2=2.405
r152 21 22 21.5294 $w=1.68e-07 $l=3.3e-07 $layer=LI1_cond $X=10.855 $Y=2.405
+ $X2=10.525 $Y2=2.405
r153 18 19 145.28 $w=1.7e-07 $l=1.7e-07 $layer=licon1_POLY $count=1 $X=10.36
+ $Y=1.815 $X2=10.36 $Y2=1.815
r154 16 22 7.21222 $w=1.7e-07 $l=1.67183e-07 $layer=LI1_cond $X=10.395 $Y=2.32
+ $X2=10.525 $Y2=2.405
r155 16 18 22.384 $w=2.58e-07 $l=5.05e-07 $layer=LI1_cond $X=10.395 $Y=2.32
+ $X2=10.395 $Y2=1.815
r156 13 15 91.58 $w=1.5e-07 $l=2.85e-07 $layer=POLY_cond $X=10.16 $Y=2.37
+ $X2=10.16 $Y2=2.655